travelling_fire-1cw.fds
Generated by PyroSim - Version 2019.1.0515
01-Jul-2020 13:11:45

&HEAD CHID='travelling_fire-1cw'/
&TIME T_END=600.0/
&DUMP RENDER_FILE='travelling_fire-1cw.ge1', COLUMN_DUMP_LIMIT=.TRUE., DT_RESTART=300.0, DT_SL3D=0.25/

&MESH ID='MPI0', IJK=125,89,29, XB=-1.0,24.0,33.2,51.0,2.6,8.4, MPI_PROCESS=0/
&MESH ID='MPI1', IJK=125,85,29, XB=-1.0,24.0,16.2,33.2,2.6,8.4, MPI_PROCESS=1/
&MESH ID='MPI2_0', IJK=125,86,29, XB=-1.0,24.0,-1.0,16.2,2.6,8.4, MPI_PROCESS=2/
&MESH ID='MPI2_1', IJK=11,60,29, XB=24.0,26.2,-1.0,11.0,2.6,8.4, MPI_PROCESS=2/
&MESH ID='MPI3', IJK=200,56,29, XB=24.0,64.0,11.0,22.2,2.6,8.4, MPI_PROCESS=3/
&MESH ID='MPI4_0', IJK=128,60,29, XB=38.4,64.0,22.2,34.2,2.6,8.4, MPI_PROCESS=4/
&MESH ID='MPI4_1', IJK=72,38,29, XB=24.0,38.4,22.2,29.8,2.6,8.4, MPI_PROCESS=4/
&MESH ID='MPI5', IJK=128,84,29, XB=38.4,64.0,34.2,51.0,2.6,8.4, MPI_PROCESS=5/


&REAC ID='POLYURETHANE',
      FYI='NFPA Babrauskas',
      FUEL='REAC_FUEL',
      C=6.3,
      H=7.1,
      O=2.1,
      N=1.0,
      SOOT_YIELD=0.1,
      RADIATIVE_FRACTION=0.35/

&MATL ID='CONCRETE',
      FYI='NBSIR 88-3752 - ATF NIST Multi-Floor Validation',
      SPECIFIC_HEAT=1.04,
      CONDUCTIVITY=1.8,
      DENSITY=2280.0/
&MATL ID='STEEL',
      FYI='Drysdale, Intro to Fire Dynamics - ATF NIST Multi-Floor Validation',
      SPECIFIC_HEAT=0.46,
      CONDUCTIVITY=45.8,
      DENSITY=7850.0,
      EMISSIVITY=0.95/

&SURF ID='CONCRETE',
      COLOR='GRAY 80',
      BACKING='VOID',
      MATL_ID(1,1)='CONCRETE',
      MATL_MASS_FRACTION(1,1)=1.0,
      THICKNESS(1)=0.1/
&SURF ID='STEEL',
      COLOR='GRAY 80',
      BACKING='VOID',
      MATL_ID(1,1)='STEEL',
      MATL_MASS_FRACTION(1,1)=1.0,
      THICKNESS(1)=0.01/
&SURF ID='MLR_FIRE',
      COLOR='RED',
      MLRPUA=0.019084,
      ADIABATIC=.TRUE./

&OBST ID='ext_col_1', XB=-0.4,0.4,49.6,50.4,0.0,15.0, SURF_ID='STEEL'/ 
&OBST ID='ext_col_2', XB=-0.2,0.2,24.6,25.4,0.0,15.0, SURF_ID='STEEL'/ 
&OBST ID='ext_col_3', XB=-0.4,0.4,-0.4,0.4,0.0,15.0, SURF_ID='STEEL'/ 
&OBST ID='ext_col_4', XB=24.6,25.4,12.0,12.8,0.0,15.0, SURF_ID='STEEL'/ 
&OBST ID='ext_col_5', XB=49.6,50.4,49.8,50.2,0.0,15.0, SURF_ID='STEEL'/ 
&OBST ID='int_col_1', XB=12.0,12.8,40.2,41.0,0.0,15.0, SURF_ID='STEEL'/ 
&OBST ID='int_col_2', XB=12.4,12.8,24.6,25.4,0.0,15.0, SURF_ID='STEEL'/ 
&OBST ID='int_col_3', XB=12.2,13.0,12.0,12.8,0.0,15.0, SURF_ID='STEEL'/ 
&OBST ID='int_col_4', XB=49.6,50.4,40.6,41.0,0.0,15.0, SURF_ID='STEEL'/ 
&OBST ID='Obstruction', XB=24.6,25.4,-0.4,0.4,0.0,15.0, SURF_ID='STEEL'/ 
&OBST ID='Obstruction', XB=62.0,62.8,12.0,12.8,0.0,15.0, SURF_ID='STEEL'/ 
&OBST ID='Obstruction', XB=62.0,62.8,49.6,50.4,0.0,15.0, SURF_ID='STEEL'/ 
&OBST ID='Obstruction', XB=37.2,38.0,12.2,12.6,0.0,15.0, SURF_ID='STEEL'/ 
&OBST ID='Obstruction', XB=49.6,50.4,12.2,12.6,0.0,15.0, SURF_ID='STEEL'/ 
&OBST ID='Obstruction', XB=12.0,12.8,-0.2,0.2,0.0,15.0, SURF_ID='STEEL'/ 
&OBST ID='Obstruction', XB=-0.2,0.2,37.0,37.8,0.0,15.0, SURF_ID='STEEL'/ 
&OBST ID='Obstruction', XB=-0.2,0.2,12.0,12.8,0.0,15.0, SURF_ID='STEEL'/ 
&OBST ID='Obstruction', XB=12.2,13.0,49.8,50.2,0.0,15.0, SURF_ID='STEEL'/ 
&OBST ID='Obstruction', XB=24.6,25.4,49.8,50.2,0.0,15.0, SURF_ID='STEEL'/ 
&OBST ID='Obstruction', XB=37.2,38.0,49.8,50.2,0.0,15.0, SURF_ID='STEEL'/ 
&OBST ID='Obstruction', XB=62.2,62.6,37.0,37.8,0.0,15.0, SURF_ID='STEEL'/ 
&OBST ID='Obstruction', XB=62.2,62.6,24.6,25.4,0.0,15.0, SURF_ID='STEEL'/ 
&OBST ID='Core obstacale', XB=21.2,24.0,45.8,49.2,3.6,8.4, SURF_ID='CONCRETE'/ 
&OBST ID='Core obstacale', XB=21.6,24.0,43.2,45.8,3.6,8.4, SURF_ID='CONCRETE'/ 
&OBST ID='Core obstacale', XB=22.0,24.0,35.8,43.2,3.6,8.4, SURF_ID='CONCRETE'/ 
&OBST ID='Core obstacale', XB=24.0,24.0,33.2,35.8,3.6,8.4, SURF_ID='CONCRETE'/ 
&OBST ID='Core obstacale', XB=24.0,24.0,29.8,33.2,3.6,8.4, SURF_ID='CONCRETE'/ 
&OBST ID='Core obstacale', XB=38.4,38.4,29.8,34.2,3.6,8.4, SURF_ID='CONCRETE'/ 
&OBST ID='Core obstacale', XB=26.8,29.4,27.6,28.2,3.6,8.4, SURF_ID='CONCRETE'/ 
&OBST ID='Core obstacale', XB=26.8,35.6,28.2,29.8,3.6,8.4, SURF_ID='CONCRETE'/ 
&OBST ID='Core obstacale', XB=33.2,35.6,27.6,28.2,3.6,8.4, SURF_ID='CONCRETE'/ 
&OBST ID='Core obstacale', XB=24.0,26.8,29.8,29.8,3.6,8.4, SURF_ID='CONCRETE'/ 
&OBST ID='Core obstacale', XB=35.6,38.4,29.8,29.8,3.6,8.4, SURF_ID='CONCRETE'/ 
&OBST ID='Core obstacale', XB=38.4,40.0,41.4,44.8,3.6,8.4, SURF_ID='CONCRETE'/ 
&OBST ID='Core obstacale', XB=38.4,40.6,35.8,41.4,3.6,8.4, SURF_ID='CONCRETE'/ 
&OBST ID='Core obstacale', XB=38.4,40.8,44.8,49.2,3.6,8.4, SURF_ID='CONCRETE'/ 
&OBST ID='Core obstacale', XB=38.4,38.4,34.2,35.8,3.6,8.4, SURF_ID='CONCRETE'/ 
&OBST ID='Core wall', XB=29.6,33.0,28.0,28.2,3.82,7.62, SURF_ID='CONCRETE'/ 
&OBST ID='Core wall', XB=21.0,21.2,45.8,49.2,3.8,7.6, SURF_ID='CONCRETE'/ 
&OBST ID='Core wall', XB=21.0,21.6,45.6,45.8,3.8,7.6, SURF_ID='CONCRETE'/ 
&OBST ID='Core wall', XB=21.4,21.6,43.2,45.6,3.8,7.6, SURF_ID='CONCRETE'/ 
&OBST ID='Core wall', XB=21.4,22.0,43.0,43.2,3.8,7.6, SURF_ID='CONCRETE'/ 
&OBST ID='Core wall', XB=21.8,22.0,35.8,43.0,3.8,7.6, SURF_ID='CONCRETE'/ 
&OBST ID='Core wall', XB=21.8,24.0,35.6,35.8,3.8,7.6, SURF_ID='CONCRETE'/ 
&OBST ID='Core wall', XB=23.8,24.0,33.2,35.6,3.8,7.6, SURF_ID='CONCRETE'/ 
&OBST ID='Core wall', XB=29.6,33.0,28.0,28.2,3.82,7.62, SURF_ID='CONCRETE'/ 
&OBST ID='Core wall', XB=23.8,24.0,29.6,33.2,3.8,7.6, SURF_ID='CONCRETE'/ 
&OBST ID='Core wall', XB=29.6,33.0,28.0,28.2,3.82,7.62, SURF_ID='CONCRETE'/ 
&OBST ID='Core wall', XB=29.6,33.0,28.0,28.2,3.82,7.62, SURF_ID='CONCRETE'/ 
&OBST ID='Core wall', XB=29.6,33.0,28.0,28.2,3.82,7.62, SURF_ID='CONCRETE'/ 
&OBST ID='Core wall', XB=29.6,33.0,28.0,28.2,3.82,7.62, SURF_ID='CONCRETE'/ 
&OBST ID='Core wall', XB=38.4,38.6,29.6,34.2,3.8,7.6, SURF_ID='CONCRETE'/ 
&OBST ID='Core wall', XB=29.6,33.0,28.0,28.2,3.82,7.62, SURF_ID='CONCRETE'/ 
&OBST ID='Core wall', XB=24.0,26.8,29.6,29.8,3.8,7.6, SURF_ID='CONCRETE'/ 
&OBST ID='Core wall', XB=26.6,26.8,27.6,29.6,3.8,7.6, SURF_ID='CONCRETE'/ 
&OBST ID='Core wall', XB=26.6,29.6,27.4,27.6,3.8,7.6, SURF_ID='CONCRETE'/ 
&OBST ID='Core wall', XB=29.4,29.6,27.6,28.4,3.8,7.6, SURF_ID='CONCRETE'/ 
! ... 12 like lines cut
&OBST ID='Floor', XB=0.8,24.0,33.2,49.2,3.6,3.8, COLOR='INVISIBLE', SURF_ID='CONCRETE'/ 
&OBST ID='Floor', XB=0.8,24.0,16.2,33.2,3.6,3.8, COLOR='INVISIBLE', SURF_ID='CONCRETE'/ 
&OBST ID='Floor', XB=0.8,24.0,0.8,16.2,3.6,3.8, COLOR='INVISIBLE', SURF_ID='CONCRETE'/ 
&OBST ID='Floor', XB=24.0,24.2,0.8,11.0,3.6,3.8, COLOR='INVISIBLE', SURF_ID='CONCRETE'/ 
&OBST ID='Floor', XB=24.0,24.2,11.0,14.2,3.6,3.8, COLOR='INVISIBLE', SURF_ID='CONCRETE'/ 
&OBST ID='Floor', XB=24.0,61.8,14.2,22.2,3.6,3.8, COLOR='INVISIBLE', SURF_ID='CONCRETE'/ 
&OBST ID='Floor', XB=37.4,61.8,13.2,14.2,3.6,3.8, COLOR='INVISIBLE', SURF_ID='CONCRETE'/ 
&OBST ID='Floor', XB=38.4,61.8,22.2,34.2,3.6,3.8, COLOR='INVISIBLE', SURF_ID='CONCRETE'/ 
&OBST ID='Floor', XB=24.0,38.4,22.2,29.8,3.6,3.8, COLOR='INVISIBLE', SURF_ID='CONCRETE'/ 
&OBST ID='Floor', XB=38.4,61.8,34.2,49.2,3.6,3.8, COLOR='INVISIBLE', SURF_ID='CONCRETE'/ 
&OBST ID='Floor', XB=0.8,24.0,33.2,49.2,7.4,7.6, COLOR='INVISIBLE', SURF_ID='CONCRETE'/ 
&OBST ID='Floor', XB=0.8,24.0,16.2,33.2,7.4,7.6, COLOR='INVISIBLE', SURF_ID='CONCRETE'/ 
&OBST ID='Floor', XB=0.8,24.0,0.8,16.2,7.4,7.6, COLOR='INVISIBLE', SURF_ID='CONCRETE'/ 
&OBST ID='Floor', XB=24.0,24.2,0.8,11.0,7.4,7.6, COLOR='INVISIBLE', SURF_ID='CONCRETE'/ 
&OBST ID='Floor', XB=24.0,24.2,11.0,14.2,7.4,7.6, COLOR='INVISIBLE', SURF_ID='CONCRETE'/ 
&OBST ID='Floor', XB=24.0,61.8,14.2,22.2,7.4,7.6, COLOR='INVISIBLE', SURF_ID='CONCRETE'/ 
&OBST ID='Floor', XB=37.4,61.8,13.2,14.2,7.4,7.6, COLOR='INVISIBLE', SURF_ID='CONCRETE'/ 
&OBST ID='Floor', XB=38.4,61.8,22.2,34.2,7.4,7.6, COLOR='INVISIBLE', SURF_ID='CONCRETE'/ 
&OBST ID='Floor', XB=24.0,38.4,22.2,29.8,7.4,7.6, COLOR='INVISIBLE', SURF_ID='CONCRETE'/ 
&OBST ID='Floor', XB=38.4,61.8,34.2,49.4,7.4,7.6, COLOR='INVISIBLE', SURF_ID='CONCRETE'/ 

&VENT ID='Mesh Vent: MPI0 [XMAX]', SURF_ID='OPEN', XB=24.0,24.0,33.2,51.0,2.6,8.4/ 
&VENT ID='Mesh Vent: MPI0 [XMIN]', SURF_ID='OPEN', XB=-1.0,-1.0,33.2,51.0,2.6,8.4/ 
&VENT ID='Mesh Vent: MPI0 [YMAX]', SURF_ID='OPEN', XB=-1.0,24.0,51.0,51.0,2.6,8.4/ 
&VENT ID='Mesh Vent: MPI0 [ZMAX]', SURF_ID='OPEN', XB=-1.0,24.0,33.2,51.0,8.4,8.4/ 
&VENT ID='Mesh Vent: MPI0 [ZMIN]', SURF_ID='OPEN', XB=-1.0,24.0,33.2,51.0,2.6,2.6/ 
&VENT ID='Mesh Vent: MPI1 [XMAX]', SURF_ID='OPEN', XB=24.0,24.0,29.8,33.2,2.6,8.4/ 
&VENT ID='Mesh Vent: MPI1 [XMIN]', SURF_ID='OPEN', XB=-1.0,-1.0,16.2,33.2,2.6,8.4/ 
&VENT ID='Mesh Vent: MPI1 [ZMAX]', SURF_ID='OPEN', XB=-1.0,24.0,16.2,33.2,8.4,8.4/ 
&VENT ID='Mesh Vent: MPI1 [ZMIN]', SURF_ID='OPEN', XB=-1.0,24.0,16.2,33.2,2.6,2.6/ 
&VENT ID='Mesh Vent: MPI2_0 [XMIN]', SURF_ID='OPEN', XB=-1.0,-1.0,-1.0,16.2,2.6,8.4/ 
&VENT ID='Mesh Vent: MPI2_0 [YMIN]', SURF_ID='OPEN', XB=-1.0,24.0,-1.0,-1.0,2.6,8.4/ 
&VENT ID='Mesh Vent: MPI2_0 [ZMAX]', SURF_ID='OPEN', XB=-1.0,24.0,-1.0,16.2,8.4,8.4/ 
&VENT ID='Mesh Vent: MPI2_0 [ZMIN]', SURF_ID='OPEN', XB=-1.0,24.0,-1.0,16.2,2.6,2.6/ 
&VENT ID='Mesh Vent: MPI2_1 [XMAX]', SURF_ID='OPEN', XB=26.2,26.2,-1.0,11.0,2.6,8.4/ 
&VENT ID='Mesh Vent: MPI2_1 [YMIN]', SURF_ID='OPEN', XB=24.0,26.2,-1.0,-1.0,2.6,8.4/ 
&VENT ID='Mesh Vent: MPI2_1 [ZMAX]', SURF_ID='OPEN', XB=24.0,26.2,-1.0,11.0,8.4,8.4/ 
&VENT ID='Mesh Vent: MPI2_1 [ZMIN]', SURF_ID='OPEN', XB=24.0,26.2,-1.0,11.0,2.6,2.6/ 
&VENT ID='Mesh Vent: MPI3 [XMAX]', SURF_ID='OPEN', XB=64.0,64.0,11.0,22.2,2.6,8.4/ 
&VENT ID='Mesh Vent: MPI3 [YMIN]', SURF_ID='OPEN', XB=26.2,64.0,11.0,11.0,2.6,8.4/ 
&VENT ID='Mesh Vent: MPI3 [ZMAX]', SURF_ID='OPEN', XB=24.0,64.0,11.0,22.2,8.4,8.4/ 
&VENT ID='Mesh Vent: MPI3 [ZMIN]', SURF_ID='OPEN', XB=24.0,64.0,11.0,22.2,2.6,2.6/ 
&VENT ID='Mesh Vent: MPI4_0 [XMAX]', SURF_ID='OPEN', XB=64.0,64.0,22.2,34.2,2.6,8.4/ 
&VENT ID='Mesh Vent: MPI4_0 [XMIN]', SURF_ID='OPEN', XB=38.4,38.4,29.8,34.2,2.6,8.4/ 
&VENT ID='Mesh Vent: MPI4_0 [ZMAX]', SURF_ID='OPEN', XB=38.4,64.0,22.2,34.2,8.4,8.4/ 
&VENT ID='Mesh Vent: MPI4_0 [ZMIN]', SURF_ID='OPEN', XB=38.4,64.0,22.2,34.2,2.6,2.6/ 
&VENT ID='Mesh Vent: MPI4_1 [YMAX]', SURF_ID='OPEN', XB=24.0,38.4,29.8,29.8,2.6,8.4/ 
&VENT ID='Mesh Vent: MPI4_1 [ZMAX]', SURF_ID='OPEN', XB=24.0,38.4,22.2,29.8,8.4,8.4/ 
&VENT ID='Mesh Vent: MPI4_1 [ZMIN]', SURF_ID='OPEN', XB=24.0,38.4,22.2,29.8,2.6,2.6/ 
&VENT ID='Mesh Vent: MPI5 [XMAX]', SURF_ID='OPEN', XB=64.0,64.0,34.2,51.0,2.6,8.4/ 
&VENT ID='Mesh Vent: MPI5 [XMIN]', SURF_ID='OPEN', XB=38.4,38.4,34.2,51.0,2.6,8.4/ 
&VENT ID='Mesh Vent: MPI5 [YMAX]', SURF_ID='OPEN', XB=38.4,64.0,51.0,51.0,2.6,8.4/ 
&VENT ID='Mesh Vent: MPI5 [ZMAX]', SURF_ID='OPEN', XB=38.4,64.0,34.2,51.0,8.4,8.4/ 
&VENT ID='Mesh Vent: MPI5 [ZMIN]', SURF_ID='OPEN', XB=38.4,64.0,34.2,51.0,2.6,2.6/ 
&VENT ID='travelling_fire_a_00', SURF_ID='MLR_FIRE', XB=0.8,1.8,48.2,49.2,3.82,3.82/ 
&VENT ID='travelling_fire_a_01', SURF_ID='MLR_FIRE', XB=1.8,2.8,48.2,49.2,3.82,3.82/ 
&VENT ID='travelling_fire_a_02', SURF_ID='MLR_FIRE', XB=2.8,3.8,48.2,49.2,3.82,3.82/ 
&VENT ID='travelling_fire_a_03', SURF_ID='MLR_FIRE', XB=3.8,4.8,48.2,49.2,3.82,3.82/ 
&VENT ID='travelling_fire_a_04', SURF_ID='MLR_FIRE', XB=4.8,5.8,48.2,49.2,3.82,3.82/ 
&VENT ID='travelling_fire_a_05', SURF_ID='MLR_FIRE', XB=5.8,6.8,48.2,49.2,3.82,3.82/ 
&VENT ID='travelling_fire_a_06', SURF_ID='MLR_FIRE', XB=6.8,7.8,48.2,49.2,3.82,3.82/ 
&VENT ID='travelling_fire_a_07', SURF_ID='MLR_FIRE', XB=7.8,8.8,48.2,49.2,3.82,3.82/ 
&VENT ID='travelling_fire_a_08', SURF_ID='MLR_FIRE', XB=8.8,9.8,48.2,49.2,3.82,3.82/ 
&VENT ID='travelling_fire_a_09', SURF_ID='MLR_FIRE', XB=9.8,10.8,48.2,49.2,3.82,3.82/ 
&VENT ID='travelling_fire_a_10', SURF_ID='MLR_FIRE', XB=10.8,11.8,48.2,49.2,3.82,3.82/ 
&VENT ID='travelling_fire_a_11', SURF_ID='MLR_FIRE', XB=11.8,12.8,48.2,49.2,3.82,3.82/ 
&VENT ID='travelling_fire_a_12', SURF_ID='MLR_FIRE', XB=12.8,13.8,48.2,49.2,3.82,3.82/ 
&VENT ID='travelling_fire_a_13', SURF_ID='MLR_FIRE', XB=13.8,14.8,48.2,49.2,3.82,3.82/ 
&VENT ID='travelling_fire_a_14', SURF_ID='MLR_FIRE', XB=14.8,15.8,48.2,49.2,3.82,3.82/ 
&VENT ID='travelling_fire_a_15', SURF_ID='MLR_FIRE', XB=15.8,16.8,48.2,49.2,3.82,3.82/ 
&VENT ID='travelling_fire_a_16', SURF_ID='MLR_FIRE', XB=16.8,17.8,48.2,49.2,3.82,3.82/ 
&VENT ID='travelling_fire_a_17', SURF_ID='MLR_FIRE', XB=17.8,18.8,48.2,49.2,3.82,3.82/ 
&VENT ID='travelling_fire_a_18', SURF_ID='MLR_FIRE', XB=18.8,19.8,48.2,49.2,3.82,3.82/ 
&VENT ID='travelling_fire_a_19', SURF_ID='MLR_FIRE', XB=19.8,20.8,48.2,49.2,3.82,3.82/ 
! ... 1049 like lines cut
&VENT ID='travelling_fire_b_00', SURF_ID='MLR_FIRE', XB=23.8,24.8,26.2,27.2,3.82,3.82/ 
&VENT ID='travelling_fire_b_01', SURF_ID='MLR_FIRE', XB=23.8,24.8,25.2,26.2,3.82,3.82/ 
&VENT ID='travelling_fire_b_02', SURF_ID='MLR_FIRE', XB=23.8,24.8,24.2,25.2,3.82,3.82/ 
&VENT ID='travelling_fire_b_03', SURF_ID='MLR_FIRE', XB=23.8,24.8,23.2,24.2,3.82,3.82/ 
&VENT ID='travelling_fire_b_04', SURF_ID='MLR_FIRE', XB=23.8,24.8,22.2,23.2,3.82,3.82/ 
&VENT ID='travelling_fire_b_05', SURF_ID='MLR_FIRE', XB=23.8,24.8,21.2,22.2,3.82,3.82/ 
&VENT ID='travelling_fire_b_06', SURF_ID='MLR_FIRE', XB=23.8,24.8,20.2,21.2,3.82,3.82/ 
&VENT ID='travelling_fire_b_07', SURF_ID='MLR_FIRE', XB=23.8,24.8,19.2,20.2,3.82,3.82/ 
&VENT ID='travelling_fire_b_08', SURF_ID='MLR_FIRE', XB=23.8,24.8,15.2,16.2,3.82,3.82/ 
&VENT ID='travelling_fire_b_09', SURF_ID='MLR_FIRE', XB=23.8,24.8,16.2,17.2,3.82,3.82/ 
&VENT ID='travelling_fire_b_10', SURF_ID='MLR_FIRE', XB=23.8,24.8,17.2,18.2,3.82,3.82/ 
&VENT ID='travelling_fire_b_11', SURF_ID='MLR_FIRE', XB=23.8,24.8,18.2,19.2,3.82,3.82/ 
&VENT ID='travelling_fire_b_12', SURF_ID='MLR_FIRE', XB=23.8,24.8,14.2,15.2,3.82,3.82/ 
&VENT ID='travelling_fire_b_13', SURF_ID='MLR_FIRE', XB=24.8,25.8,15.2,16.2,3.82,3.82/ 
&VENT ID='travelling_fire_b_14', SURF_ID='MLR_FIRE', XB=24.8,25.8,16.2,17.2,3.82,3.82/ 
&VENT ID='travelling_fire_b_15', SURF_ID='MLR_FIRE', XB=24.8,25.8,17.2,18.2,3.82,3.82/ 
&VENT ID='travelling_fire_b_16', SURF_ID='MLR_FIRE', XB=24.8,25.8,18.2,19.2,3.82,3.82/ 
&VENT ID='travelling_fire_b_17', SURF_ID='MLR_FIRE', XB=24.8,25.8,19.2,20.2,3.82,3.82/ 
&VENT ID='travelling_fire_b_18', SURF_ID='MLR_FIRE', XB=24.8,25.8,20.2,21.2,3.82,3.82/ 
&VENT ID='travelling_fire_b_19', SURF_ID='MLR_FIRE', XB=24.8,25.8,21.2,22.2,3.82,3.82/ 
! ... 478 like lines cut
&VENT ID='travelling_fire_c_00', SURF_ID='MLR_FIRE', XB=35.8,36.8,27.2,28.2,3.82,3.82/ 
&VENT ID='travelling_fire_c_01', SURF_ID='MLR_FIRE', XB=36.8,37.8,27.2,28.2,3.82,3.82/ 
&VENT ID='travelling_fire_c_02', SURF_ID='MLR_FIRE', XB=37.8,38.8,27.2,28.2,3.82,3.82/ 
&VENT ID='travelling_fire_c_03', SURF_ID='MLR_FIRE', XB=38.8,39.8,27.2,28.2,3.82,3.82/ 
&VENT ID='travelling_fire_c_04', SURF_ID='MLR_FIRE', XB=39.8,40.8,27.2,28.2,3.82,3.82/ 
&VENT ID='travelling_fire_c_05', SURF_ID='MLR_FIRE', XB=40.8,41.8,27.2,28.2,3.82,3.82/ 
&VENT ID='travelling_fire_c_06', SURF_ID='MLR_FIRE', XB=41.8,42.8,27.2,28.2,3.82,3.82/ 
&VENT ID='travelling_fire_c_07', SURF_ID='MLR_FIRE', XB=42.8,43.8,27.2,28.2,3.82,3.82/ 
&VENT ID='travelling_fire_c_08', SURF_ID='MLR_FIRE', XB=43.8,44.8,27.2,28.2,3.82,3.82/ 
&VENT ID='travelling_fire_c_09', SURF_ID='MLR_FIRE', XB=44.8,45.8,27.2,28.2,3.82,3.82/ 
&VENT ID='travelling_fire_c_10', SURF_ID='MLR_FIRE', XB=45.8,46.8,27.2,28.2,3.82,3.82/ 
&VENT ID='travelling_fire_c_11', SURF_ID='MLR_FIRE', XB=46.8,47.8,27.2,28.2,3.82,3.82/ 
&VENT ID='travelling_fire_c_12', SURF_ID='MLR_FIRE', XB=47.8,48.8,27.2,28.2,3.82,3.82/ 
&VENT ID='travelling_fire_c_13', SURF_ID='MLR_FIRE', XB=48.8,49.8,27.2,28.2,3.82,3.82/ 
&VENT ID='travelling_fire_c_14', SURF_ID='MLR_FIRE', XB=49.8,50.8,27.2,28.2,3.82,3.82/ 
&VENT ID='travelling_fire_c_15', SURF_ID='MLR_FIRE', XB=50.8,51.8,27.2,28.2,3.82,3.82/ 
&VENT ID='travelling_fire_c_16', SURF_ID='MLR_FIRE', XB=51.8,52.8,27.2,28.2,3.82,3.82/ 
&VENT ID='travelling_fire_c_17', SURF_ID='MLR_FIRE', XB=52.8,53.8,27.2,28.2,3.82,3.82/ 
&VENT ID='travelling_fire_c_18', SURF_ID='MLR_FIRE', XB=53.8,54.8,27.2,28.2,3.82,3.82/ 
&VENT ID='travelling_fire_c_19', SURF_ID='MLR_FIRE', XB=54.8,55.8,27.2,28.2,3.82,3.82/ 
! ... 459 like lines cut


&TAIL /
