
 Fire Dynamics Simulator

 Current Date     : November  2, 2020  15:21:52
 Revision         : FDS6.7.5-0-g71f0256-HEAD
 Revision Date    : Thu Aug 20 16:19:01 2020 -0400
 Compiler         : Intel ifort 19.1.0.166
 Compilation Date : Sep 25, 2020 12:42:11

 MPI Enabled;    Number of MPI Processes:      16
 OpenMP Enabled; Number of OpenMP Threads:      2

 MPI version: 3.1
 MPI library version: Intel(R) MPI Library 2018 Update 3 for Linux* OS


 Job TITLE        :
 Job ID string    : CLT-S9-P0_MLR_3


 Grid Dimensions, Mesh     1

   Cells in the X Direction            98
   Cells in the Y Direction            50
   Cells in the Z Direction            41
   Number of Grid Cells            200900


 Physical Dimensions, Mesh     1

   Length (m)                       9.800
   Width  (m)                       5.000
   Height (m)                       4.100
   Initial Time Step (s)            0.056

 Grid Dimensions, Mesh     2

   Cells in the X Direction            98
   Cells in the Y Direction            50
   Cells in the Z Direction            41
   Number of Grid Cells            200900


 Physical Dimensions, Mesh     2

   Length (m)                       9.800
   Width  (m)                       5.000
   Height (m)                       4.100
   Initial Time Step (s)            0.056

 Grid Dimensions, Mesh     3

   Cells in the X Direction            98
   Cells in the Y Direction            50
   Cells in the Z Direction            41
   Number of Grid Cells            200900


 Physical Dimensions, Mesh     3

   Length (m)                       9.800
   Width  (m)                       5.000
   Height (m)                       4.100
   Initial Time Step (s)            0.056

 Grid Dimensions, Mesh     4

   Cells in the X Direction            98
   Cells in the Y Direction            50
   Cells in the Z Direction            41
   Number of Grid Cells            200900


 Physical Dimensions, Mesh     4

   Length (m)                       9.800
   Width  (m)                       5.000
   Height (m)                       4.100
   Initial Time Step (s)            0.056

 Grid Dimensions, Mesh     5

   Cells in the X Direction            98
   Cells in the Y Direction            50
   Cells in the Z Direction            41
   Number of Grid Cells            200900


 Physical Dimensions, Mesh     5

   Length (m)                       9.800
   Width  (m)                       5.000
   Height (m)                       4.100
   Initial Time Step (s)            0.056

 Grid Dimensions, Mesh     6

   Cells in the X Direction            98
   Cells in the Y Direction            50
   Cells in the Z Direction            41
   Number of Grid Cells            200900


 Physical Dimensions, Mesh     6

   Length (m)                       9.800
   Width  (m)                       5.000
   Height (m)                       4.100
   Initial Time Step (s)            0.056

 Grid Dimensions, Mesh     7

   Cells in the X Direction            98
   Cells in the Y Direction            50
   Cells in the Z Direction            41
   Number of Grid Cells            200900


 Physical Dimensions, Mesh     7

   Length (m)                       9.800
   Width  (m)                       5.000
   Height (m)                       4.100
   Initial Time Step (s)            0.056

 Grid Dimensions, Mesh     8

   Cells in the X Direction            98
   Cells in the Y Direction            50
   Cells in the Z Direction            41
   Number of Grid Cells            200900


 Physical Dimensions, Mesh     8

   Length (m)                       9.800
   Width  (m)                       5.000
   Height (m)                       4.100
   Initial Time Step (s)            0.056

 Grid Dimensions, Mesh     9

   Cells in the X Direction            52
   Cells in the Y Direction            50
   Cells in the Z Direction            80
   Number of Grid Cells            208000


 Physical Dimensions, Mesh     9

   Length (m)                       5.200
   Width  (m)                       5.000
   Height (m)                       8.000
   Initial Time Step (s)            0.056

 Grid Dimensions, Mesh    10

   Cells in the X Direction            52
   Cells in the Y Direction            50
   Cells in the Z Direction            80
   Number of Grid Cells            208000


 Physical Dimensions, Mesh    10

   Length (m)                       5.200
   Width  (m)                       5.000
   Height (m)                       8.000
   Initial Time Step (s)            0.056

 Grid Dimensions, Mesh    11

   Cells in the X Direction            52
   Cells in the Y Direction            50
   Cells in the Z Direction            80
   Number of Grid Cells            208000


 Physical Dimensions, Mesh    11

   Length (m)                       5.200
   Width  (m)                       5.000
   Height (m)                       8.000
   Initial Time Step (s)            0.056

 Grid Dimensions, Mesh    12

   Cells in the X Direction            52
   Cells in the Y Direction            50
   Cells in the Z Direction            80
   Number of Grid Cells            208000


 Physical Dimensions, Mesh    12

   Length (m)                       5.200
   Width  (m)                       5.000
   Height (m)                       8.000
   Initial Time Step (s)            0.056

 Grid Dimensions, Mesh    13

   Cells in the X Direction            52
   Cells in the Y Direction            50
   Cells in the Z Direction            80
   Number of Grid Cells            208000


 Physical Dimensions, Mesh    13

   Length (m)                       5.200
   Width  (m)                       5.000
   Height (m)                       8.000
   Initial Time Step (s)            0.056

 Grid Dimensions, Mesh    14

   Cells in the X Direction            52
   Cells in the Y Direction            50
   Cells in the Z Direction            80
   Number of Grid Cells            208000


 Physical Dimensions, Mesh    14

   Length (m)                       5.200
   Width  (m)                       5.000
   Height (m)                       8.000
   Initial Time Step (s)            0.056

 Grid Dimensions, Mesh    15

   Cells in the X Direction            52
   Cells in the Y Direction            50
   Cells in the Z Direction            80
   Number of Grid Cells            208000


 Physical Dimensions, Mesh    15

   Length (m)                       5.200
   Width  (m)                       5.000
   Height (m)                       8.000
   Initial Time Step (s)            0.056

 Grid Dimensions, Mesh    16

   Cells in the X Direction            52
   Cells in the Y Direction            50
   Cells in the Z Direction            80
   Number of Grid Cells            208000


 Physical Dimensions, Mesh    16

   Length (m)                       5.200
   Width  (m)                       5.000
   Height (m)                       8.000
   Initial Time Step (s)            0.056

Total Number of Grid Cells       3271200


 Miscellaneous Parameters

   Simulation Start Time (s)          0.0
   Simulation End Time (s)         4500.0
   LES Calculation
   Eddy Viscosity:           Deardorff Model (C_DEARDORFF = 0.10)
   Near-wall Eddy Viscosity: Smagorinsky with Van Driest damping (C_SMAGORINSKY = 0.20)
   Turbulent Prandtl Number:         0.50
   Turbulent Schmidt Number:         0.50
   Ambient Temperature (C):         20.00


 Mass Fraction Transformation Matrix to Convert Species Mixtures (Columns) to Primitive Species (Rows)

                         AIR       REAC_FUE  PRODUCTS
   REAC_FUEL             0.000000  1.000000  0.000000
   NITROGEN              0.762470  0.000000  0.638868
   OXYGEN                0.230997  0.000000  0.000000
   CARBON DIOXIDE        0.000591  0.000000  0.263417
   CARBON MONOXIDE       0.000000  0.000000  0.000811
   WATER VAPOR           0.005941  0.000000  0.096904
   SOOT                  0.000000  0.000000  0.000000
   HYDROGEN              0.000000  0.000000  0.000000


 Primitive Species Information

   REAC_FUEL
   Gas Species
   Molecular Weight (g/mol)            27.00370
   Ambient Density (kg/m^3)            1.123
   Enthalpy of Formation (J/kg)       -4.63E+06

   NITROGEN
   Gas Species
   Molecular Weight (g/mol)            28.01340
   Ambient Density (kg/m^3)            1.165
   Enthalpy of Formation (J/kg)        0.00E+00

   OXYGEN
   Gas Species
   Molecular Weight (g/mol)            31.99880
   Ambient Density (kg/m^3)            1.330
   Enthalpy of Formation (J/kg)        0.00E+00

   CARBON DIOXIDE
   Gas Species
   Molecular Weight (g/mol)            44.00950
   Ambient Density (kg/m^3)            1.830
   Enthalpy of Formation (J/kg)       -8.94E+06

   CARBON MONOXIDE
   Gas Species
   Molecular Weight (g/mol)            28.01010
   Ambient Density (kg/m^3)            1.164
   Enthalpy of Formation (J/kg)       -3.95E+06

   WATER VAPOR
   Gas Species
   Molecular Weight (g/mol)            18.01528
   Ambient Density (kg/m^3)            0.749
   Enthalpy of Formation (J/kg)       -1.34E+07

   SOOT
   Gas Species
   Molecular Weight (g/mol)            10.91042
   Ambient Density (kg/m^3)            0.454
   Enthalpy of Formation (J/kg)        0.00E+00

   HYDROGEN
   Gas Species
   Molecular Weight (g/mol)             2.01588
   Ambient Density (kg/m^3)            0.084
   Enthalpy of Formation (J/kg)        0.00E+00


 Tracked (Lumped) Species Information

   AIR
   Molecular Weight (g/mol)            28.75199
   Ambient Density (kg/m^3)            1.195
   Initial Mass Fraction               1.000
   Enthalpy of Formation (J/kg)     -8.50E+04

   Sub Species                    Mass Fraction     Mole Fraction
   NITROGEN                       7.624701E-01      7.825730E-01
   OXYGEN                         2.309974E-01      2.075589E-01
   CARBON DIOXIDE                 5.914651E-04      3.864120E-04
   WATER VAPOR                    5.940984E-03      9.481679E-03

     Viscosity (kg/m/s) Ambient,  293 K:  1.80E-05
                                  500 K:  2.61E-05
                                 1000 K:  4.13E-05
                                 1500 K:  5.37E-05
   Therm. Cond. (W/m/K) Ambient,  293 K:  2.56E-02
                                  500 K:  3.81E-02
                                 1000 K:  6.69E-02
                                 1500 K:  9.25E-02
        Enthalpy (J/kg) Ambient,  293 K: -9.01E+04
                                  500 K:  1.22E+05
                                 1000 K:  6.72E+05
                                 1500 K:  1.27E+06
    Spec. Heat (J/kg/K) Ambient,  293 K:  1.02E+03
                                  500 K:  1.04E+03
                                 1000 K:  1.16E+03
                                 1500 K:  1.23E+03
   Diff. Coeff. (m^2/s) Ambient,  293 K:  1.99E-05
                                  500 K:  4.96E-05
                                 1000 K:  1.58E-04
                                 1500 K:  3.09E-04

   REAC_FUEL
   Molecular Weight (g/mol)            27.00370
   Ambient Density (kg/m^3)            1.123
   Initial Mass Fraction               0.000
   Enthalpy of Formation (J/kg)     -4.63E+06

   Sub Species                    Mass Fraction     Mole Fraction
   REAC_FUEL                      1.000000E+00      1.000000E+00

     Viscosity (kg/m/s) Ambient,  293 K:  1.71E-05
                                  500 K:  2.47E-05
                                 1000 K:  3.88E-05
                                 1500 K:  5.04E-05
   Therm. Cond. (W/m/K) Ambient,  293 K:  2.59E-02
                                  500 K:  3.74E-02
                                 1000 K:  5.88E-02
                                 1500 K:  7.65E-02
        Enthalpy (J/kg) Ambient,  293 K: -4.64E+06
                                  500 K: -4.42E+06
                                 1000 K: -3.88E+06
                                 1500 K: -3.34E+06
    Spec. Heat (J/kg/K) Ambient,  293 K:  1.08E+03
                                  500 K:  1.08E+03
                                 1000 K:  1.08E+03
                                 1500 K:  1.08E+03
   Diff. Coeff. (m^2/s) Ambient,  293 K:  2.00E-05
                                  500 K:  4.98E-05
                                 1000 K:  1.58E-04
                                 1500 K:  3.10E-04

   PRODUCTS
   Molecular Weight (g/mol)            29.24045
   Ambient Density (kg/m^3)            1.216
   Initial Mass Fraction               0.000
   Enthalpy of Formation (J/kg)     -3.66E+06

   Sub Species                    Mass Fraction     Mole Fraction
   NITROGEN                       6.388684E-01      6.668524E-01
   CARBON DIOXIDE                 2.634172E-01      1.750176E-01
   CARBON MONOXIDE                8.105347E-04      8.461377E-04
   WATER VAPOR                    9.690389E-02      1.572839E-01
   SOOT                           0.000000E+00      0.000000E+00

     Viscosity (kg/m/s) Ambient,  293 K:  1.60E-05
                                  500 K:  2.38E-05
                                 1000 K:  3.90E-05
                                 1500 K:  5.15E-05
   Therm. Cond. (W/m/K) Ambient,  293 K:  2.28E-02
                                  500 K:  3.58E-02
                                 1000 K:  6.69E-02
                                 1500 K:  9.60E-02
        Enthalpy (J/kg) Ambient,  293 K: -3.66E+06
                                  500 K: -3.44E+06
                                 1000 K: -2.83E+06
                                 1500 K: -2.15E+06
    Spec. Heat (J/kg/K) Ambient,  293 K:  1.07E+03
                                  500 K:  1.13E+03
                                 1000 K:  1.29E+03
                                 1500 K:  1.40E+03
   Diff. Coeff. (m^2/s) Ambient,  293 K:  1.92E-05
                                  500 K:  4.88E-05
                                 1000 K:  1.58E-04
                                 1500 K:  3.10E-04


 Gas Phase Reaction Information

   SFPE Handbook, 3rd Ed

   Reaction ID:  WOOD_PINE

   Fuel                                           Heat of Combustion (kJ/kg)
   REAC_FUEL                                                      17500.0000

   Stoichiometry

   Primitive Species Stoich. Coeff.
   Species ID                                                          Molar
   REAC_FUEL                                                       -1.000000
   NITROGEN                                                        -0.000000
   OXYGEN                                                          -1.007590
   CARBON DIOXIDE                                                   0.995180
   CARBON MONOXIDE                                                  0.004820
   WATER VAPOR                                                      0.850000

   Tracked (Lumped) Species Stoich. Coeff.
   Species ID                                             Molar         Mass
   AIR                                                -4.854477    -5.168768
   REAC_FUEL                                          -1.000000    -1.000000
   PRODUCTS                                            5.696887     6.168768

   Reaction Kinetics

   Arrhenius Parameters
   Pre-exponential:    Infinite
   Activation Energy:  N/A

   ODE Solver:  EXPLICIT EULER
   Extinction Model:  EXTINCTION 2
   Auto-Ignition Temperature (K):       0.0
   Critical Flame Temperature (K):   1700.2


 Material Information

   1 CONCRETE
     NBSIR 88-3752 - ATF NIST Multi-Floor Validation
     Emissivity                      0.400
     Density (kg/m3)                2500.0
     Specific Heat (kJ/kg/K)      8.00E-01
     Conductivity (W/m/K)          8.00E-01

   2 YELLOW PINE
     Quintiere, Fire Behavior - NIST NRC Validation
     Emissivity                      0.900
     Density (kg/m3)                 640.0
     Specific Heat (kJ/kg/K)      2.85E+00
     Conductivity (W/m/K)          1.40E-01

   3 Glass
     Emissivity                      0.900
     Density (kg/m3)                 500.0
     Specific Heat (kJ/kg/K)      1.00E+00
     Conductivity (W/m/K)          1.00E-01


 Surface Conditions

   0 INERT (DEFAULT)

   1 Concrete
     Material List
          1  CONCRETE
     Layer  1
        Thickness   (m):  0.20000
        Density (kg/m3):  2500.00
        CONCRETE, Mass fraction:    1.00
     Total surface density   500.000 kg/m2
     Solid Phase Node, Layer, Coordinates(m):
                    0      1       0.0000000
                    1      1       0.0005236
                    2      1       0.0015707
                    3      1       0.0036649
                    4      1       0.0078534
                    5      1       0.0162304
                    6      1       0.0329843
                    7      1       0.0664921
                    8      1       0.1335079
                    9      1       0.1670157
                   10      1       0.1837696
                   11      1       0.1921466
                   12      1       0.1963351
                   13      1       0.1984293
                   14      1       0.1994764
                   15      1       0.2000000
     Backing to void

   2 CLT
     Material List
          1  YELLOW PINE
     Layer  1
        Thickness   (m):  0.20000
        Density (kg/m3):   640.00
        YELLOW PINE, Mass fraction:    1.00
     Total surface density   128.000 kg/m2
     Solid Phase Node, Layer, Coordinates(m):
                    0      1       0.0000000
                    1      1       0.0002611
                    2      1       0.0007833
                    3      1       0.0018277
                    4      1       0.0039164
                    5      1       0.0080940
                    6      1       0.0164491
                    7      1       0.0331593
                    8      1       0.0665796
                    9      1       0.1334204
                   10      1       0.1668407
                   11      1       0.1835509
                   12      1       0.1919060
                   13      1       0.1960836
                   14      1       0.1981723
                   15      1       0.1992167
                   16      1       0.1997389
                   17      1       0.2000000
     Backing to void

   3 Glass
     Material List
          1  Glass
     Layer  1
        Thickness   (m):  0.20000
        Density (kg/m3):   500.00
        Glass, Mass fraction:    1.00
     Total surface density   100.000 kg/m2
     Solid Phase Node, Layer, Coordinates(m):
                    0      1       0.0000000
                    1      1       0.0003922
                    2      1       0.0011765
                    3      1       0.0027451
                    4      1       0.0058824
                    5      1       0.0121569
                    6      1       0.0247059
                    7      1       0.0498039
                    8      1       0.1000000
                    9      1       0.1501961
                   10      1       0.1752941
                   11      1       0.1878431
                   12      1       0.1941176
                   13      1       0.1972549
                   14      1       0.1988235
                   15      1       0.1996078
                   16      1       0.2000000
     Backing to void

   4 Burner_floor
     Wall or Vent Temperature (C)   300.0
     REAC_FUEL Mass Flux (kg/s/m2)   4.30E-02

   5 OPEN
     Passive Vent to Atmosphere

   6 MIRROR
     Symmetry Plane

   7 INTERPOLATED

   8 PERIODIC

   9 HVAC

  10 MASSLESS TRACER

  11 DROPLET

  12 EVACUATION_OUTFLOW
     Normal Velocity (m/s)         0.000

  13 MASSLESS TARGET

  14 PERIODIC FLOW ONLY


 Device Coordinates

     1 Coords:      0.100000      9.999000      4.100000, Make: null, ID: temp_0.1, Quantity: THERMOCOUPLE
     2 Coords:      0.100000      9.999000      4.300000, Make: null, ID: temp_0.3, Quantity: THERMOCOUPLE
     3 Coords:      0.100000      9.999000      4.500000, Make: null, ID: temp_0.5, Quantity: THERMOCOUPLE
     4 Coords:      0.100000      9.999000      4.700000, Make: null, ID: temp_0.7, Quantity: THERMOCOUPLE
     5 Coords:      0.100000      9.999000      4.900000, Make: null, ID: temp_0.9, Quantity: THERMOCOUPLE
     6 Coords:      0.100000      9.999000      5.100000, Make: null, ID: temp_1.1, Quantity: THERMOCOUPLE
     7 Coords:      0.100000      9.999000      5.300000, Make: null, ID: temp_1.3, Quantity: THERMOCOUPLE
     8 Coords:      0.100000      9.999000      5.500000, Make: null, ID: temp_1.5, Quantity: THERMOCOUPLE
     9 Coords:      0.100000      9.999000      4.100000, Make: null, ID: rad_0.1, Quantity: RADIATIVE HEAT FLUX
    10 Coords:      0.100000      9.999000      4.300000, Make: null, ID: rad_0.3, Quantity: RADIATIVE HEAT FLUX
    11 Coords:      0.100000      9.999000      4.500000, Make: null, ID: rad_0.5, Quantity: RADIATIVE HEAT FLUX
    12 Coords:      0.100000      9.999000      4.700000, Make: null, ID: rad_0.7, Quantity: RADIATIVE HEAT FLUX
    13 Coords:      0.100000      9.999000      4.900000, Make: null, ID: rad_0.9, Quantity: RADIATIVE HEAT FLUX
    14 Coords:      0.100000      9.999000      5.100000, Make: null, ID: rad_1.1, Quantity: RADIATIVE HEAT FLUX
    15 Coords:      0.100000      9.999000      5.300000, Make: null, ID: rad_1.3, Quantity: RADIATIVE HEAT FLUX
    16 Coords:      0.100000      9.999000      5.500000, Make: null, ID: rad_1.5, Quantity: RADIATIVE HEAT FLUX
    17 Coords:      0.100000     19.999000      4.100000, Make: null, ID: temp_0.01, Quantity: THERMOCOUPLE
    18 Coords:      0.100000     19.999000      4.300000, Make: null, ID: temp_0.02, Quantity: THERMOCOUPLE
    19 Coords:      0.100000     19.999000      4.500000, Make: null, ID: temp_0.03, Quantity: THERMOCOUPLE
    20 Coords:      0.100000     19.999000      4.700000, Make: null, ID: temp_0.04, Quantity: THERMOCOUPLE
    21 Coords:      0.100000     19.999000      4.900000, Make: null, ID: temp_0.05, Quantity: THERMOCOUPLE
    22 Coords:      0.100000     19.999000      5.100000, Make: null, ID: temp_1.01, Quantity: THERMOCOUPLE
    23 Coords:      0.100000     19.999000      5.300000, Make: null, ID: temp_1.02, Quantity: THERMOCOUPLE
    24 Coords:      0.100000     19.999000      5.500000, Make: null, ID: temp_1.03, Quantity: THERMOCOUPLE
    25 Coords:      0.100000     19.999000      4.100000, Make: null, ID: rad_0.01, Quantity: RADIATIVE HEAT FLUX
    26 Coords:      0.100000     19.999000      4.300000, Make: null, ID: rad_0.02, Quantity: RADIATIVE HEAT FLUX
    27 Coords:      0.100000     19.999000      4.500000, Make: null, ID: rad_0.03, Quantity: RADIATIVE HEAT FLUX
    28 Coords:      0.100000     19.999000      4.700000, Make: null, ID: rad_0.04, Quantity: RADIATIVE HEAT FLUX
    29 Coords:      0.100000     19.999000      4.900000, Make: null, ID: rad_0.05, Quantity: RADIATIVE HEAT FLUX
    30 Coords:      0.100000     19.999000      5.100000, Make: null, ID: rad_1.01, Quantity: RADIATIVE HEAT FLUX
    31 Coords:      0.100000     19.999000      5.300000, Make: null, ID: rad_1.02, Quantity: RADIATIVE HEAT FLUX
    32 Coords:      0.100000     19.999000      5.500000, Make: null, ID: rad_1.03, Quantity: RADIATIVE HEAT FLUX
    33 Coords:      0.100000     29.999000      4.100000, Make: null, ID: temp_0.06, Quantity: THERMOCOUPLE
    34 Coords:      0.100000     29.999000      4.300000, Make: null, ID: temp_0.07, Quantity: THERMOCOUPLE
    35 Coords:      0.100000     29.999000      4.500000, Make: null, ID: temp_0.08, Quantity: THERMOCOUPLE
    36 Coords:      0.100000     29.999000      4.700000, Make: null, ID: temp_0.09, Quantity: THERMOCOUPLE
    37 Coords:      0.100000     29.999000      4.900000, Make: null, ID: temp_0.10, Quantity: THERMOCOUPLE
    38 Coords:      0.100000     29.999000      5.100000, Make: null, ID: temp_1.04, Quantity: THERMOCOUPLE
    39 Coords:      0.100000     29.999000      5.300000, Make: null, ID: temp_1.05, Quantity: THERMOCOUPLE
    40 Coords:      0.100000     29.999000      5.500000, Make: null, ID: temp_1.06, Quantity: THERMOCOUPLE
    41 Coords:      0.100000     29.999000      4.100000, Make: null, ID: rad_0.06, Quantity: RADIATIVE HEAT FLUX
    42 Coords:      0.100000     29.999000      4.300000, Make: null, ID: rad_0.07, Quantity: RADIATIVE HEAT FLUX
    43 Coords:      0.100000     29.999000      4.500000, Make: null, ID: rad_0.08, Quantity: RADIATIVE HEAT FLUX
    44 Coords:      0.100000     29.999000      4.700000, Make: null, ID: rad_0.09, Quantity: RADIATIVE HEAT FLUX
    45 Coords:      0.100000     29.999000      4.900000, Make: null, ID: rad_0.10, Quantity: RADIATIVE HEAT FLUX
    46 Coords:      0.100000     29.999000      5.100000, Make: null, ID: rad_1.04, Quantity: RADIATIVE HEAT FLUX
    47 Coords:      0.100000     29.999000      5.300000, Make: null, ID: rad_1.05, Quantity: RADIATIVE HEAT FLUX
    48 Coords:      0.100000     29.999000      5.500000, Make: null, ID: rad_1.06, Quantity: RADIATIVE HEAT FLUX
    49 Coords:      0.400000      4.000000      2.000000, Make: null, ID: Glass1, Quantity: THERMOCOUPLE
    50 Coords:      0.400000     12.000000      2.000000, Make: null, ID: Glass2, Quantity: THERMOCOUPLE
    51 Coords:      0.400000     19.999000      2.000000, Make: null, ID: Glass3, Quantity: THERMOCOUPLE
    52 Coords:      0.400000     28.000000      2.000000, Make: null, ID: Glass4, Quantity: THERMOCOUPLE
    53 Coords:      0.400000     36.000000      2.000000, Make: null, ID: Glass5, Quantity: THERMOCOUPLE


 Slice File Information, Mesh     1

   Sampling Interval (s)             4.500

   1 Nodes:   0  98   2   2   0  41, Quantity: TEMPERATURE
   2 Nodes:   0  98   2   2   0  41, Quantity: U-VELOCITY
   3 Nodes:   0  98   2   2   0  41, Quantity: V-VELOCITY
   4 Nodes:   0  98   2   2   0  41, Quantity: W-VELOCITY
   5 Nodes:   0  98   2   2   0  41, Quantity: VELOCITY
   6 Nodes:   0  98   2   2   0  41, Quantity: U-VELOCITY
   7 Nodes:   0  98   2   2   0  41, Quantity: V-VELOCITY
   8 Nodes:   0  98   2   2   0  41, Quantity: W-VELOCITY


 Radiation Model Information

   Number of control angles  104
   Time step increment         3
   Angle increment             5
   Theta band N_phi   Solid angle
     1:        4     0.120
     2:       12     0.114
     3:       16     0.127
     4:       20     0.120
     5:       20     0.120
     6:       16     0.127
     7:       12     0.114
     8:        4     0.120
   Using gray gas absorption.
   Mean beam length  0.100 m



 Run Time Diagnostics

       Time Step       1   November  2, 2020  15:21:55
       Step Size:    0.556E-01 s, Total Time:       0.06 s
       Pressure Iterations:      1
       Maximum Velocity Error:  0.48E-02 on Mesh   7 at (  60  51   2)
       Maximum Pressure Error:  0.71E-05 on Mesh   9 at (  16  28  80)
       ---------------------------------------------------------------
       Mesh    1
       Max CFL number:  0.11E-01 at (  38,  35,  23)
       Max divergence:  0.13E-05 at (  80,   8,  20)
       Min divergence: -0.16E-05 at (  74,  49,  10)
       Max VN number:   0.90E-02 at (  37,  28,   4)
       Radiation Loss to Boundaries:        -0.010 kW
       Mesh    2
       Max CFL number:  0.11E-01 at (  72,  38,  32)
       Max divergence:  0.12E-05 at (  21,   4,  30)
       Min divergence: -0.16E-05 at (  74,  39,  26)
       Max VN number:   0.88E-02 at (  75,  47,  33)
       Radiation Loss to Boundaries:        -0.012 kW
       Mesh    3
       Max CFL number:  0.11E-01 at (  88,  13,  17)
       Max divergence:  0.11E-05 at (  87,  19,  23)
       Min divergence: -0.18E-05 at (  50,  49,   8)
       Max VN number:   0.91E-02 at (  87,  28,  26)
       Radiation Loss to Boundaries:        -0.014 kW
       Mesh    4
       Max CFL number:  0.11E-01 at (  32,  39,  35)
       Max divergence:  0.10E-05 at (   7,  33,  23)
       Min divergence: -0.19E-05 at (  73,  49,  35)
       Max VN number:   0.88E-02 at (  90,  30,   5)
       Radiation Loss to Boundaries:        -0.020 kW
       Mesh    5
       Max CFL number:  0.11E-01 at (  13,  21,  24)
       Max divergence:  0.12E-05 at (  33,  25,  18)
       Min divergence: -0.19E-05 at (  25,   4,   8)
       Max VN number:   0.88E-02 at (  14,  31,   8)
       Radiation Loss to Boundaries:        -0.020 kW
       Mesh    6
       Max CFL number:  0.11E-01 at (  96,  18,  31)
       Max divergence:  0.12E-05 at (   6,  24,  19)
       Min divergence: -0.17E-05 at (  81,   5,   7)
       Max VN number:   0.88E-02 at (  72,  30,  30)
       Radiation Loss to Boundaries:        -0.015 kW
       Mesh    7
       Max CFL number:  0.11E-01 at (  18,   4,   3)
       Max divergence:  0.11E-05 at (  47,  26,  34)
       Min divergence: -0.17E-05 at (  38,   5,   5)
       Max VN number:   0.87E-02 at (  11,  29,  17)
       Radiation Loss to Boundaries:        -0.013 kW
       Mesh    8
       Max CFL number:  0.11E-01 at (  56,  19,  34)
       Max divergence:  0.12E-05 at (  97,  48,  20)
       Min divergence: -0.18E-05 at (  38,   8,  13)
       Max VN number:   0.89E-02 at (  38,   8,  13)
       Radiation Loss to Boundaries:        -0.010 kW
       Mesh    9
       Max CFL number:  0.11E-01 at (  31,  13,  12)
       Max divergence:  0.12E-05 at (  13,  34,  52)
       Min divergence: -0.15E-05 at (  27,  41,  41)
       Max VN number:   0.86E-02 at (  27,  41,  41)
       Radiation Loss to Boundaries:        -0.005 kW
       Mesh   10
       Max CFL number:  0.11E-01 at (   8,  47,  15)
       Max divergence:  0.13E-05 at (   8,  13,  74)
       Min divergence: -0.15E-05 at (  32,  48,  51)
       Max VN number:   0.88E-02 at (  23,  40,  65)
       No. of Lagrangian Particles:             8
       Radiation Loss to Boundaries:        -0.005 kW
       Mesh   11
       Max CFL number:  0.11E-01 at (  45,   8,  69)
       Max divergence:  0.12E-05 at (   4,  35,  16)
       Min divergence: -0.16E-05 at (  26,  34,  47)
       Max VN number:   0.88E-02 at (  28,  19,  51)
       Radiation Loss to Boundaries:        -0.006 kW
       Mesh   12
       Max CFL number:  0.11E-01 at (  28,  46,  40)
       Max divergence:  0.12E-05 at (  39,   2,  79)
       Min divergence: -0.15E-05 at (  28,  18,  54)
       Max VN number:   0.91E-02 at (  23,  37,  75)
       No. of Lagrangian Particles:             8
       Radiation Loss to Boundaries:        -0.010 kW
       Mesh   13
       Max CFL number:  0.11E-01 at (  49,  24,  65)
       Max divergence:  0.12E-05 at (  46,  24,  42)
       Min divergence: -0.16E-05 at (  29,  21,  11)
       Max VN number:   0.85E-02 at (  19,   7,  36)
       Radiation Loss to Boundaries:        -0.010 kW
       Mesh   14
       Max CFL number:  0.11E-01 at (  38,  13,  45)
       Max divergence:  0.13E-05 at (   4,  25,  45)
       Min divergence: -0.15E-05 at (  34,  13,  47)
       Max VN number:   0.88E-02 at (  25,  46,   8)
       No. of Lagrangian Particles:             8
       Radiation Loss to Boundaries:        -0.006 kW
       Mesh   15
       Max CFL number:  0.11E-01 at (   2,  17,  19)
       Max divergence:  0.13E-05 at (  15,  28,  69)
       Min divergence: -0.16E-05 at (   2,   2,  47)
       Max VN number:   0.84E-02 at (  29,  10,  28)
       Radiation Loss to Boundaries:        -0.006 kW
       Mesh   16
       Max CFL number:  0.11E-01 at (  50,  11,  47)
       Max divergence:  0.13E-05 at (  47,   5,  71)
       Min divergence: -0.15E-05 at (  32,   2,  15)
       Max VN number:   0.91E-02 at (   8,   7,  28)
       Radiation Loss to Boundaries:        -0.005 kW

       Time Step       2   November  2, 2020  15:21:56
       Step Size:    0.556E-01 s, Total Time:       0.11 s
       Pressure Iterations:      1
       Maximum Velocity Error:  0.21E-02 on Mesh   3 at (  23  51   2)
       Maximum Pressure Error:  0.13E-03 on Mesh   2 at (   3  25  36)
       ---------------------------------------------------------------
       Mesh    1
       Max CFL number:  0.11E-01 at (  96,  49,  10)
       Max divergence:  0.13E-05 at (  80,   8,  20)
       Min divergence: -0.16E-05 at (  74,  49,  10)
       Max VN number:   0.90E-02 at (  37,  28,   4)
       Radiation Loss to Boundaries:        -0.010 kW
       Mesh    2
       Max CFL number:  0.11E-01 at (  97,  35,  33)
       Max divergence:  0.12E-05 at (  21,   4,  30)
       Min divergence: -0.16E-05 at (  74,  39,  26)
       Max VN number:   0.87E-02 at (  75,  47,  33)
       Radiation Loss to Boundaries:        -0.012 kW
       Mesh    3
       Max CFL number:  0.11E-01 at (  88,  14,  17)
       Max divergence:  0.11E-05 at (  87,  19,  23)
       Min divergence: -0.18E-05 at (  50,  49,   8)
       Max VN number:   0.91E-02 at (  87,  28,  26)
       Radiation Loss to Boundaries:        -0.014 kW
       Mesh    4
       Max CFL number:  0.11E-01 at (  32,  40,  35)
       Max divergence:  0.10E-05 at (  57,  27,   4)
       Min divergence: -0.19E-05 at (  73,  49,  35)
       Max VN number:   0.88E-02 at (  90,  30,   5)
       Radiation Loss to Boundaries:        -0.020 kW
       Mesh    5
       Max CFL number:  0.11E-01 at (  13,  20,  24)
       Max divergence:  0.12E-05 at (  33,  25,  18)
       Min divergence: -0.19E-05 at (  25,   4,   8)
       Max VN number:   0.88E-02 at (  14,  31,   8)
       Radiation Loss to Boundaries:        -0.020 kW
       Mesh    6
       Max CFL number:  0.11E-01 at (  96,  18,  32)
       Max divergence:  0.12E-05 at (   6,  24,  19)
       Min divergence: -0.17E-05 at (  81,   5,   7)
       Max VN number:   0.87E-02 at (  72,  30,  30)
       Radiation Loss to Boundaries:        -0.015 kW
       Mesh    7
       Max CFL number:  0.11E-01 at (  70,   9,   2)
       Max divergence:  0.11E-05 at (  47,  26,  34)
       Min divergence: -0.17E-05 at (  38,   5,   5)
       Max VN number:   0.87E-02 at (  11,  29,  17)
       Radiation Loss to Boundaries:        -0.013 kW
       Mesh    8
       Max CFL number:  0.11E-01 at (  64,  45,   3)
       Max divergence:  0.12E-05 at (  97,  48,  20)
       Min divergence: -0.18E-05 at (  38,   8,  13)
       Max VN number:   0.89E-02 at (  38,   8,  13)
       Radiation Loss to Boundaries:        -0.010 kW
       Mesh    9
       Max CFL number:  0.11E-01 at (  31,  13,  12)
       Max divergence:  0.12E-05 at (  13,  34,  52)
       Min divergence: -0.15E-05 at (  27,  41,  41)
       Max VN number:   0.86E-02 at (  27,  41,  41)
       Radiation Loss to Boundaries:        -0.005 kW
       Mesh   10
       Max CFL number:  0.11E-01 at (  50,  13,  40)
       Max divergence:  0.13E-05 at (   8,  13,  74)
       Min divergence: -0.15E-05 at (  32,  48,  51)
       Max VN number:   0.88E-02 at (  23,  40,  65)
       No. of Lagrangian Particles:             8
       Radiation Loss to Boundaries:        -0.005 kW
       Mesh   11
       Max CFL number:  0.11E-01 at (  33,  40,  12)
       Max divergence:  0.12E-05 at (   4,  35,  16)
       Min divergence: -0.16E-05 at (  26,  34,  47)
       Max VN number:   0.88E-02 at (  28,  19,  51)
       Radiation Loss to Boundaries:        -0.006 kW
       Mesh   12
       Max CFL number:  0.11E-01 at (  27,  46,  40)
       Max divergence:  0.12E-05 at (   5,  38,   6)
       Min divergence: -0.15E-05 at (  28,  18,  54)
       Max VN number:   0.91E-02 at (  23,  37,  75)
       No. of Lagrangian Particles:             8
       Radiation Loss to Boundaries:        -0.010 kW
       Mesh   13
       Max CFL number:  0.11E-01 at (  49,  24,  65)
       Max divergence:  0.12E-05 at (  46,  24,  42)
       Min divergence: -0.16E-05 at (  29,  21,  11)
       Max VN number:   0.85E-02 at (  19,   7,  36)
       Radiation Loss to Boundaries:        -0.010 kW
       Mesh   14
       Max CFL number:  0.11E-01 at (  38,  14,  45)
       Max divergence:  0.12E-05 at (  15,  12,   3)
       Min divergence: -0.15E-05 at (  34,  13,  47)
       Max VN number:   0.88E-02 at (  25,  46,   8)
       No. of Lagrangian Particles:             8
       Radiation Loss to Boundaries:        -0.006 kW
       Mesh   15
       Max CFL number:  0.11E-01 at (   8,  34,  69)
       Max divergence:  0.12E-05 at (  15,  28,  69)
       Min divergence: -0.16E-05 at (   2,   2,  47)
       Max VN number:   0.83E-02 at (  29,  10,  28)
       Radiation Loss to Boundaries:        -0.006 kW
       Mesh   16
       Max CFL number:  0.11E-01 at (  50,  11,  47)
       Max divergence:  0.13E-05 at (  47,   5,  71)
       Min divergence: -0.15E-05 at (  32,   2,  15)
       Max VN number:   0.91E-02 at (   8,   7,  28)
       Radiation Loss to Boundaries:        -0.005 kW

       Time Step       3   November  2, 2020  15:21:57
       Step Size:    0.556E-01 s, Total Time:       0.17 s
       Pressure Iterations:      1
       Maximum Velocity Error:  0.25E-02 on Mesh   7 at (  60  51   2)
       Maximum Pressure Error:  0.96E-04 on Mesh   2 at (   3  21  36)
       ---------------------------------------------------------------
       Mesh    1
       Max CFL number:  0.11E-01 at (  38,  35,  24)
       Max divergence:  0.13E-05 at (  80,   8,  20)
       Min divergence: -0.16E-05 at (  74,  49,  10)
       Max VN number:   0.90E-02 at (  37,  28,   4)
       Radiation Loss to Boundaries:        -0.010 kW
       Mesh    2
       Max CFL number:  0.11E-01 at (  97,  35,  33)
       Max divergence:  0.12E-05 at (  21,   4,  30)
       Min divergence: -0.16E-05 at (  74,  39,  26)
       Max VN number:   0.87E-02 at (  75,  47,  33)
       Radiation Loss to Boundaries:        -0.012 kW
       Mesh    3
       Max CFL number:  0.11E-01 at (  88,  14,  17)
       Max divergence:  0.11E-05 at (  87,  19,  23)
       Min divergence: -0.18E-05 at (  50,  49,   8)
       Max VN number:   0.91E-02 at (  87,  28,  26)
       Radiation Loss to Boundaries:        -0.014 kW
       Mesh    4
       Max CFL number:  0.11E-01 at (  32,  40,  35)
       Max divergence:  0.10E-05 at (  57,  27,   4)
       Min divergence: -0.19E-05 at (  73,  49,  35)
       Max VN number:   0.88E-02 at (  90,  30,   5)
       Radiation Loss to Boundaries:        -0.020 kW
       Mesh    5
       Max CFL number:  0.11E-01 at (  13,  20,  24)
       Max divergence:  0.12E-05 at (  33,  25,  18)
       Min divergence: -0.19E-05 at (  25,   4,   8)
       Max VN number:   0.88E-02 at (  14,  31,   8)
       Radiation Loss to Boundaries:        -0.020 kW
       Mesh    6
       Max CFL number:  0.11E-01 at (  42,   8,  24)
       Max divergence:  0.12E-05 at (   6,  24,  19)
       Min divergence: -0.17E-05 at (  43,   5,  13)
       Max VN number:   0.87E-02 at (  72,  30,  30)
       Radiation Loss to Boundaries:        -0.015 kW
       Mesh    7
       Max CFL number:  0.11E-01 at (  70,   9,   2)
       Max divergence:  0.11E-05 at (  47,  26,  34)
       Min divergence: -0.17E-05 at (  38,   5,   5)
       Max VN number:   0.87E-02 at (  11,  29,  17)
       Radiation Loss to Boundaries:        -0.013 kW
       Mesh    8
       Max CFL number:  0.11E-01 at (  64,  45,   3)
       Max divergence:  0.12E-05 at (  97,  48,  20)
       Min divergence: -0.18E-05 at (  38,   8,  13)
       Max VN number:   0.88E-02 at (  38,   8,  13)
       Radiation Loss to Boundaries:        -0.010 kW
       Mesh    9
       Max CFL number:  0.11E-01 at (  31,  13,  12)
       Max divergence:  0.12E-05 at (  13,  34,  52)
       Min divergence: -0.15E-05 at (  27,  41,  41)
       Max VN number:   0.86E-02 at (  27,  41,  41)
       Radiation Loss to Boundaries:        -0.005 kW
       Mesh   10
       Max CFL number:  0.11E-01 at (  50,  13,  40)
       Max divergence:  0.13E-05 at (   8,  13,  74)
       Min divergence: -0.15E-05 at (  32,  48,  51)
       Max VN number:   0.88E-02 at (  23,  40,  65)
       No. of Lagrangian Particles:             8
       Radiation Loss to Boundaries:        -0.005 kW
       Mesh   11
       Max CFL number:  0.11E-01 at (  33,  40,  12)
       Max divergence:  0.12E-05 at (   4,  35,  16)
       Min divergence: -0.16E-05 at (  26,  34,  47)
       Max VN number:   0.88E-02 at (  28,  19,  51)
       Radiation Loss to Boundaries:        -0.006 kW
       Mesh   12
       Max CFL number:  0.11E-01 at (  27,  46,  40)
       Max divergence:  0.12E-05 at (   5,  38,   6)
       Min divergence: -0.15E-05 at (  28,  18,  54)
       Max VN number:   0.90E-02 at (  23,  37,  75)
       No. of Lagrangian Particles:             8
       Radiation Loss to Boundaries:        -0.010 kW
       Mesh   13
       Max CFL number:  0.11E-01 at (  49,  24,  65)
       Max divergence:  0.12E-05 at (  46,  24,  42)
       Min divergence: -0.16E-05 at (  29,  21,  11)
       Max VN number:   0.85E-02 at (  19,   7,  36)
       Radiation Loss to Boundaries:        -0.010 kW
       Mesh   14
       Max CFL number:  0.11E-01 at (  38,  14,  45)
       Max divergence:  0.12E-05 at (  15,  12,   3)
       Min divergence: -0.15E-05 at (  34,  13,  47)
       Max VN number:   0.88E-02 at (  25,  46,   8)
       No. of Lagrangian Particles:             8
       Radiation Loss to Boundaries:        -0.006 kW
       Mesh   15
       Max CFL number:  0.11E-01 at (   2,  16,  19)
       Max divergence:  0.12E-05 at (  15,  28,  69)
       Min divergence: -0.16E-05 at (   2,   2,  47)
       Max VN number:   0.83E-02 at (  29,  10,  28)
       Radiation Loss to Boundaries:        -0.006 kW
       Mesh   16
       Max CFL number:  0.11E-01 at (  50,  11,  47)
       Max divergence:  0.13E-05 at (  47,   5,  71)
       Min divergence: -0.15E-05 at (  32,   2,  15)
       Max VN number:   0.90E-02 at (   8,   7,  28)
       Radiation Loss to Boundaries:        -0.005 kW

       Time Step       4   November  2, 2020  15:21:58
       Step Size:    0.556E-01 s, Total Time:       0.22 s
       Pressure Iterations:      1
       Maximum Velocity Error:  0.20E-02 on Mesh   2 at (  97  51   2)
       Maximum Pressure Error:  0.78E-04 on Mesh   7 at (   3  28  36)
       ---------------------------------------------------------------
       Mesh    1
       Max CFL number:  0.11E-01 at (  38,  35,  24)
       Max divergence:  0.13E-05 at (  80,   8,  20)
       Min divergence: -0.15E-05 at (  24,  42,   8)
       Max VN number:   0.90E-02 at (  37,  28,   4)
       Radiation Loss to Boundaries:        -0.008 kW
       Mesh    2
       Max CFL number:  0.11E-01 at (  97,  35,  33)
       Max divergence:  0.13E-05 at (  21,   4,  30)
       Min divergence: -0.15E-05 at (  74,  39,  26)
       Max VN number:   0.87E-02 at (  75,  47,  33)
       Radiation Loss to Boundaries:        -0.009 kW
       Mesh    3
       Max CFL number:  0.11E-01 at (  88,  14,  17)
       Max divergence:  0.11E-05 at (  87,  19,  23)
       Min divergence: -0.17E-05 at (  50,  49,   8)
       Max VN number:   0.90E-02 at (  87,  28,  26)
       Radiation Loss to Boundaries:        -0.011 kW
       Mesh    4
       Max CFL number:  0.11E-01 at (  32,  40,  35)
       Max divergence:  0.11E-05 at (  57,  27,   4)
       Min divergence: -0.17E-05 at (  73,  49,  35)
       Max VN number:   0.88E-02 at (  90,  30,   5)
       Radiation Loss to Boundaries:        -0.015 kW
       Mesh    5
       Max CFL number:  0.11E-01 at (  77,  37,   3)
       Max divergence:  0.12E-05 at (  33,  25,  18)
       Min divergence: -0.17E-05 at (  14,  31,   8)
       Max VN number:   0.88E-02 at (  14,  31,   8)
       Radiation Loss to Boundaries:        -0.015 kW
       Mesh    6
       Max CFL number:  0.11E-01 at (  42,   8,  24)
       Max divergence:  0.12E-05 at (  27,  28,  15)
       Min divergence: -0.16E-05 at (  81,   5,   7)
       Max VN number:   0.87E-02 at (  72,  30,  30)
       Radiation Loss to Boundaries:        -0.010 kW
       Mesh    7
       Max CFL number:  0.11E-01 at (  70,   9,   2)
       Max divergence:  0.11E-05 at (  47,  26,  34)
       Min divergence: -0.15E-05 at (  80,  10,   5)
       Max VN number:   0.87E-02 at (  11,  29,  17)
       Radiation Loss to Boundaries:        -0.009 kW
       Mesh    8
       Max CFL number:  0.11E-01 at (  56,  19,  34)
       Max divergence:  0.12E-05 at (  29,  30,  30)
       Min divergence: -0.16E-05 at (  38,   8,  13)
       Max VN number:   0.88E-02 at (  38,   8,  13)
       Radiation Loss to Boundaries:        -0.007 kW
       Mesh    9
       Max CFL number:  0.11E-01 at (  31,  13,  12)
       Max divergence:  0.12E-05 at (  13,  34,  52)
       Min divergence: -0.15E-05 at (  27,  41,  41)
       Max VN number:   0.85E-02 at (  27,  41,  41)
       Radiation Loss to Boundaries:        -0.004 kW
       Mesh   10
       Max CFL number:  0.11E-01 at (  50,  13,  40)
       Max divergence:  0.13E-05 at (   8,  13,  74)
       Min divergence: -0.15E-05 at (  32,  48,  51)
       Max VN number:   0.87E-02 at (  23,  40,  65)
       No. of Lagrangian Particles:             8
       Radiation Loss to Boundaries:        -0.004 kW
       Mesh   11
       Max CFL number:  0.11E-01 at (  33,  40,  12)
       Max divergence:  0.13E-05 at (   4,  35,  16)
       Min divergence: -0.16E-05 at (  26,  34,  47)
       Max VN number:   0.88E-02 at (  28,  19,  51)
       Radiation Loss to Boundaries:        -0.005 kW
       Mesh   12
       Max CFL number:  0.11E-01 at (  27,  46,  40)
       Max divergence:  0.12E-05 at (   5,  38,   6)
       Min divergence: -0.15E-05 at (  28,  18,  54)
       Max VN number:   0.90E-02 at (  23,  37,  75)
       No. of Lagrangian Particles:             8
       Radiation Loss to Boundaries:        -0.008 kW
       Mesh   13
       Max CFL number:  0.11E-01 at (  49,  24,  65)
       Max divergence:  0.12E-05 at (  46,  24,  42)
       Min divergence: -0.16E-05 at (  29,  21,  11)
       Max VN number:   0.85E-02 at (  19,   7,  36)
       Radiation Loss to Boundaries:        -0.008 kW
       Mesh   14
       Max CFL number:  0.11E-01 at (  38,  14,  45)
       Max divergence:  0.13E-05 at (   4,  25,  45)
       Min divergence: -0.15E-05 at (  34,  13,  47)
       Max VN number:   0.88E-02 at (  25,  46,   8)
       No. of Lagrangian Particles:             8
       Radiation Loss to Boundaries:        -0.005 kW
       Mesh   15
       Max CFL number:  0.11E-01 at (   2,  16,  19)
       Max divergence:  0.13E-05 at (  15,  28,  69)
       Min divergence: -0.15E-05 at (  23,  34,  65)
       Max VN number:   0.83E-02 at (  29,  10,  28)
       Radiation Loss to Boundaries:        -0.005 kW
       Mesh   16
       Max CFL number:  0.11E-01 at (  50,  11,  47)
       Max divergence:  0.13E-05 at (  47,   5,  71)
       Min divergence: -0.15E-05 at (  32,   2,  15)
       Max VN number:   0.90E-02 at (   8,   7,  28)
       Radiation Loss to Boundaries:        -0.004 kW

       Time Step       5   November  2, 2020  15:21:59
       Step Size:    0.556E-01 s, Total Time:       0.28 s
       Pressure Iterations:      1
       Maximum Velocity Error:  0.12E-02 on Mesh   2 at (  97  51   2)
       Maximum Pressure Error:  0.62E-04 on Mesh   7 at (   3  43  36)
       ---------------------------------------------------------------
       Mesh    1
       Max CFL number:  0.11E-01 at (  38,  35,  24)
       Max divergence:  0.13E-05 at (  80,   8,  20)
       Min divergence: -0.15E-05 at (  24,  42,   8)
       Max VN number:   0.89E-02 at (  37,  28,   4)
       Radiation Loss to Boundaries:        -0.008 kW
       Mesh    2
       Max CFL number:  0.11E-01 at (  96,  35,  33)
       Max divergence:  0.13E-05 at (  21,   4,  30)
       Min divergence: -0.15E-05 at (  74,  39,  26)
       Max VN number:   0.87E-02 at (  75,  47,  33)
       Radiation Loss to Boundaries:        -0.009 kW
       Mesh    3
       Max CFL number:  0.11E-01 at (  88,  14,  17)
       Max divergence:  0.11E-05 at (  87,  19,  23)
       Min divergence: -0.17E-05 at (  50,  49,   8)
       Max VN number:   0.90E-02 at (  87,  28,  26)
       Radiation Loss to Boundaries:        -0.011 kW
       Mesh    4
       Max CFL number:  0.11E-01 at (  32,  40,  35)
       Max divergence:  0.11E-05 at (  57,  27,   4)
       Min divergence: -0.17E-05 at (  73,  49,  35)
       Max VN number:   0.87E-02 at (  90,  30,   5)
       Radiation Loss to Boundaries:        -0.015 kW
       Mesh    5
       Max CFL number:  0.11E-01 at (  77,  37,   3)
       Max divergence:  0.12E-05 at (  33,  25,  18)
       Min divergence: -0.17E-05 at (  14,  31,   8)
       Max VN number:   0.87E-02 at (  14,  31,   8)
       Radiation Loss to Boundaries:        -0.015 kW
       Mesh    6
       Max CFL number:  0.11E-01 at (  42,   8,  24)
       Max divergence:  0.12E-05 at (  27,  28,  15)
       Min divergence: -0.16E-05 at (  81,   5,   7)
       Max VN number:   0.87E-02 at (  72,  30,  30)
       Radiation Loss to Boundaries:        -0.010 kW
       Mesh    7
       Max CFL number:  0.11E-01 at (  70,   9,   2)
       Max divergence:  0.11E-05 at (  47,  26,  34)
       Min divergence: -0.15E-05 at (  80,  10,   5)
       Max VN number:   0.86E-02 at (  11,  29,  17)
       Radiation Loss to Boundaries:        -0.009 kW
       Mesh    8
       Max CFL number:  0.11E-01 at (  56,  19,  34)
       Max divergence:  0.13E-05 at (  29,  30,  30)
       Min divergence: -0.16E-05 at (  38,   8,  13)
       Max VN number:   0.88E-02 at (  38,   8,  13)
       Radiation Loss to Boundaries:        -0.007 kW
       Mesh    9
       Max CFL number:  0.11E-01 at (  31,  13,  12)
       Max divergence:  0.12E-05 at (  13,  34,  52)
       Min divergence: -0.15E-05 at (  27,  41,  41)
       Max VN number:   0.85E-02 at (  27,  41,  41)
       Radiation Loss to Boundaries:        -0.004 kW
       Mesh   10
       Max CFL number:  0.11E-01 at (  50,  13,  40)
       Max divergence:  0.13E-05 at (   8,  13,  74)
       Min divergence: -0.15E-05 at (  32,  48,  51)
       Max VN number:   0.87E-02 at (  23,  40,  65)
       No. of Lagrangian Particles:             8
       Radiation Loss to Boundaries:        -0.004 kW
       Mesh   11
       Max CFL number:  0.11E-01 at (  33,  40,  12)
       Max divergence:  0.13E-05 at (   4,  35,  16)
       Min divergence: -0.16E-05 at (  26,  34,  47)
       Max VN number:   0.88E-02 at (  28,  19,  51)
       Radiation Loss to Boundaries:        -0.005 kW
       Mesh   12
       Max CFL number:  0.11E-01 at (  27,  46,  40)
       Max divergence:  0.12E-05 at (   5,  38,   6)
       Min divergence: -0.15E-05 at (  26,  34,  56)
       Max VN number:   0.90E-02 at (  23,  37,  75)
       No. of Lagrangian Particles:             8
       Radiation Loss to Boundaries:        -0.008 kW
       Mesh   13
       Max CFL number:  0.10E-01 at (  49,  24,  65)
       Max divergence:  0.12E-05 at (  46,  24,  42)
       Min divergence: -0.16E-05 at (  29,  21,  11)
       Max VN number:   0.84E-02 at (  19,   7,  36)
       Radiation Loss to Boundaries:        -0.008 kW
       Mesh   14
       Max CFL number:  0.11E-01 at (  38,  14,  45)
       Max divergence:  0.13E-05 at (   4,  25,  45)
       Min divergence: -0.15E-05 at (  34,  13,  47)
       Max VN number:   0.87E-02 at (  25,  46,   8)
       No. of Lagrangian Particles:             8
       Radiation Loss to Boundaries:        -0.005 kW
       Mesh   15
       Max CFL number:  0.11E-01 at (   2,  16,  19)
       Max divergence:  0.13E-05 at (  15,  28,  69)
       Min divergence: -0.15E-05 at (  23,  34,  65)
       Max VN number:   0.83E-02 at (  29,  10,  28)
       Radiation Loss to Boundaries:        -0.005 kW
       Mesh   16
       Max CFL number:  0.11E-01 at (  50,  11,  47)
       Max divergence:  0.13E-05 at (  47,   5,  71)
       Min divergence: -0.15E-05 at (  32,   2,  15)
       Max VN number:   0.90E-02 at (   8,   7,  28)
       Radiation Loss to Boundaries:        -0.004 kW

       Time Step       6   November  2, 2020  15:22:00
       Step Size:    0.556E-01 s, Total Time:       0.33 s
       Pressure Iterations:      1
       Maximum Velocity Error:  0.76E-03 on Mesh   7 at (   3  51   2)
       Maximum Pressure Error:  0.48E-04 on Mesh   7 at (   3  45  36)
       ---------------------------------------------------------------
       Mesh    1
       Max CFL number:  0.11E-01 at (  38,  35,  24)
       Max divergence:  0.13E-05 at (  80,   8,  20)
       Min divergence: -0.15E-05 at (  24,  42,   8)
       Max VN number:   0.89E-02 at (  37,  28,   4)
       Radiation Loss to Boundaries:        -0.008 kW
       Mesh    2
       Max CFL number:  0.10E-01 at (  96,  35,  33)
       Max divergence:  0.13E-05 at (  21,   4,  30)
       Min divergence: -0.15E-05 at (  74,  39,  26)
       Max VN number:   0.87E-02 at (  75,  47,  33)
       Radiation Loss to Boundaries:        -0.009 kW
       Mesh    3
       Max CFL number:  0.11E-01 at (  88,  14,  17)
       Max divergence:  0.11E-05 at (  87,  19,  23)
       Min divergence: -0.17E-05 at (  50,  49,   8)
       Max VN number:   0.90E-02 at (  87,  28,  26)
       Radiation Loss to Boundaries:        -0.011 kW
       Mesh    4
       Max CFL number:  0.11E-01 at (  32,  40,  35)
       Max divergence:  0.11E-05 at (  57,  27,   4)
       Min divergence: -0.17E-05 at (  73,  49,  35)
       Max VN number:   0.87E-02 at (  90,  30,   5)
       Radiation Loss to Boundaries:        -0.015 kW
       Mesh    5
       Max CFL number:  0.11E-01 at (   3,   6,   5)
       Max divergence:  0.12E-05 at (  33,  25,  18)
       Min divergence: -0.17E-05 at (  14,  31,   8)
       Max VN number:   0.87E-02 at (  14,  31,   8)
       Radiation Loss to Boundaries:        -0.015 kW
       Mesh    6
       Max CFL number:  0.11E-01 at (  42,   8,  24)
       Max divergence:  0.12E-05 at (   6,  24,  19)
       Min divergence: -0.16E-05 at (  81,   5,   7)
       Max VN number:   0.86E-02 at (  72,  30,  30)
       Radiation Loss to Boundaries:        -0.010 kW
       Mesh    7
       Max CFL number:  0.11E-01 at (  70,   9,   2)
       Max divergence:  0.11E-05 at (  47,  26,  34)
       Min divergence: -0.15E-05 at (  80,  10,   5)
       Max VN number:   0.86E-02 at (  11,  29,  17)
       Radiation Loss to Boundaries:        -0.009 kW
       Mesh    8
       Max CFL number:  0.11E-01 at (  56,  19,  34)
       Max divergence:  0.13E-05 at (  29,  30,  30)
       Min divergence: -0.16E-05 at (  38,   8,  13)
       Max VN number:   0.88E-02 at (  38,   8,  13)
       Radiation Loss to Boundaries:        -0.007 kW
       Mesh    9
       Max CFL number:  0.11E-01 at (  31,  13,  12)
       Max divergence:  0.12E-05 at (  13,  34,  52)
       Min divergence: -0.15E-05 at (  27,  41,  41)
       Max VN number:   0.85E-02 at (  27,  41,  41)
       Radiation Loss to Boundaries:        -0.004 kW
       Mesh   10
       Max CFL number:  0.11E-01 at (  50,  13,  40)
       Max divergence:  0.13E-05 at (   8,  13,  74)
       Min divergence: -0.15E-05 at (  32,  48,  51)
       Max VN number:   0.87E-02 at (  23,  40,  65)
       No. of Lagrangian Particles:             8
       Radiation Loss to Boundaries:        -0.004 kW
       Mesh   11
       Max CFL number:  0.11E-01 at (  33,  40,  12)
       Max divergence:  0.13E-05 at (   4,  35,  16)
       Min divergence: -0.16E-05 at (  26,  34,  47)
       Max VN number:   0.88E-02 at (  28,  19,  51)
       Radiation Loss to Boundaries:        -0.005 kW
       Mesh   12
       Max CFL number:  0.11E-01 at (  27,  46,  40)
       Max divergence:  0.12E-05 at (   5,  38,   6)
       Min divergence: -0.15E-05 at (  26,  34,  56)
       Max VN number:   0.90E-02 at (  23,  37,  75)
       No. of Lagrangian Particles:             8
       Radiation Loss to Boundaries:        -0.008 kW
       Mesh   13
       Max CFL number:  0.10E-01 at (  49,  24,  65)
       Max divergence:  0.12E-05 at (  46,  24,  42)
       Min divergence: -0.16E-05 at (  29,  21,  11)
       Max VN number:   0.84E-02 at (  19,   7,  36)
       Radiation Loss to Boundaries:        -0.008 kW
       Mesh   14
       Max CFL number:  0.10E-01 at (  45,  22,  51)
       Max divergence:  0.13E-05 at (  15,  12,   3)
       Min divergence: -0.15E-05 at (  34,  13,  47)
       Max VN number:   0.87E-02 at (  25,  46,   8)
       No. of Lagrangian Particles:             8
       Radiation Loss to Boundaries:        -0.005 kW
       Mesh   15
       Max CFL number:  0.11E-01 at (   2,  16,  19)
       Max divergence:  0.13E-05 at (  15,  28,  69)
       Min divergence: -0.15E-05 at (  23,  34,  65)
       Max VN number:   0.83E-02 at (  29,  10,  28)
       Radiation Loss to Boundaries:        -0.005 kW
       Mesh   16
       Max CFL number:  0.11E-01 at (  50,  11,  47)
       Max divergence:  0.13E-05 at (  47,   5,  71)
       Min divergence: -0.15E-05 at (  32,   2,  15)
       Max VN number:   0.90E-02 at (   8,   7,  28)
       Radiation Loss to Boundaries:        -0.004 kW

       Time Step       7   November  2, 2020  15:22:01
       Step Size:    0.556E-01 s, Total Time:       0.39 s
       Pressure Iterations:      1
       Maximum Velocity Error:  0.56E-03 on Mesh   7 at (  61  51  36)
       Maximum Pressure Error:  0.40E-04 on Mesh   3 at (   3   1  36)
       ---------------------------------------------------------------
       Mesh    1
       Max CFL number:  0.11E-01 at (  38,  35,  24)
       Max divergence:  0.13E-05 at (  80,   8,  20)
       Min divergence: -0.14E-05 at (  24,  42,   8)
       Max VN number:   0.89E-02 at (  37,  28,   4)
       Radiation Loss to Boundaries:        -0.006 kW
       Mesh    2
       Max CFL number:  0.10E-01 at (  96,  35,  33)
       Max divergence:  0.13E-05 at (  21,   4,  30)
       Min divergence: -0.14E-05 at (  74,  39,  26)
       Max VN number:   0.86E-02 at (  75,  47,  33)
       Radiation Loss to Boundaries:        -0.007 kW
       Mesh    3
       Max CFL number:  0.11E-01 at (  88,  14,  17)
       Max divergence:  0.12E-05 at (  87,  19,  23)
       Min divergence: -0.16E-05 at (  50,  49,   8)
       Max VN number:   0.90E-02 at (  87,  28,  26)
       Radiation Loss to Boundaries:        -0.008 kW
       Mesh    4
       Max CFL number:  0.11E-01 at (  32,  40,  35)
       Max divergence:  0.12E-05 at (  57,  27,   4)
       Min divergence: -0.16E-05 at (  73,  49,  35)
       Max VN number:   0.87E-02 at (  90,  30,   5)
       Radiation Loss to Boundaries:        -0.010 kW
       Mesh    5
       Max CFL number:  0.11E-01 at (   3,   6,   5)
       Max divergence:  0.13E-05 at (  33,  25,  18)
       Min divergence: -0.16E-05 at (  14,  31,   8)
       Max VN number:   0.87E-02 at (  14,  31,   8)
       Radiation Loss to Boundaries:        -0.010 kW
       Mesh    6
       Max CFL number:  0.11E-01 at (  42,   8,  24)
       Max divergence:  0.13E-05 at (  27,  28,  15)
       Min divergence: -0.15E-05 at (  63,  35,   6)
       Max VN number:   0.86E-02 at (  72,  30,  30)
       Radiation Loss to Boundaries:        -0.007 kW
       Mesh    7
       Max CFL number:  0.11E-01 at (  70,   9,   2)
       Max divergence:  0.12E-05 at (  47,  26,  34)
       Min divergence: -0.14E-05 at (  53,   7,   3)
       Max VN number:   0.86E-02 at (  11,  29,  17)
       Radiation Loss to Boundaries:        -0.006 kW
       Mesh    8
       Max CFL number:  0.11E-01 at (  56,  19,  34)
       Max divergence:  0.13E-05 at (  29,  30,  30)
       Min divergence: -0.16E-05 at (  38,   8,  13)
       Max VN number:   0.87E-02 at (  38,   8,  13)
       Radiation Loss to Boundaries:        -0.004 kW
       Mesh    9
       Max CFL number:  0.11E-01 at (  31,  13,  12)
       Max divergence:  0.12E-05 at (  45,  41,  11)
       Min divergence: -0.15E-05 at (  27,  41,  41)
       Max VN number:   0.85E-02 at (  27,  41,  41)
       Radiation Loss to Boundaries:        -0.004 kW
       Mesh   10
       Max CFL number:  0.11E-01 at (  50,  13,  40)
       Max divergence:  0.13E-05 at (   8,  13,  74)
       Min divergence: -0.15E-05 at (  32,  48,  51)
       Max VN number:   0.86E-02 at (  23,  40,  65)
       No. of Lagrangian Particles:             8
       Radiation Loss to Boundaries:        -0.004 kW
       Mesh   11
       Max CFL number:  0.10E-01 at (  33,  40,  12)
       Max divergence:  0.13E-05 at (  41,  22,  19)
       Min divergence: -0.16E-05 at (  26,  34,  47)
       Max VN number:   0.87E-02 at (  28,  19,  51)
       Radiation Loss to Boundaries:        -0.004 kW
       Mesh   12
       Max CFL number:  0.11E-01 at (  27,  46,  40)
       Max divergence:  0.13E-05 at (  37,   8,  34)
       Min divergence: -0.14E-05 at (   4,  44,  17)
       Max VN number:   0.89E-02 at (  23,  37,  75)
       No. of Lagrangian Particles:             8
       Radiation Loss to Boundaries:        -0.004 kW
       Mesh   13
       Max CFL number:  0.10E-01 at (  49,  24,  65)
       Max divergence:  0.12E-05 at (  46,  24,  42)
       Min divergence: -0.15E-05 at (  29,  21,  11)
       Max VN number:   0.84E-02 at (  14,  34,  56)
       Radiation Loss to Boundaries:        -0.006 kW
       Mesh   14
       Max CFL number:  0.10E-01 at (  45,  22,  51)
       Max divergence:  0.13E-05 at (  26,  18,  65)
       Min divergence: -0.14E-05 at (  25,  17,  25)
       Max VN number:   0.87E-02 at (  25,  46,   8)
       No. of Lagrangian Particles:             8
       Radiation Loss to Boundaries:        -0.003 kW
       Mesh   15
       Max CFL number:  0.11E-01 at (   2,  16,  19)
       Max divergence:  0.12E-05 at (  15,  28,  69)
       Min divergence: -0.14E-05 at (  23,  14,  38)
       Max VN number:   0.82E-02 at (  29,  10,  28)
       Radiation Loss to Boundaries:        -0.003 kW
       Mesh   16
       Max CFL number:  0.11E-01 at (  50,  11,  47)
       Max divergence:  0.13E-05 at (  47,   5,  71)
       Min divergence: -0.14E-05 at (  27,   6,  33)
       Max VN number:   0.89E-02 at (   8,   7,  28)
       Radiation Loss to Boundaries:        -0.002 kW

       Time Step       8   November  2, 2020  15:22:02
       Step Size:    0.556E-01 s, Total Time:       0.44 s
       Pressure Iterations:      1
       Maximum Velocity Error:  0.45E-03 on Mesh  10 at (  52  51  65)
       Maximum Pressure Error:  0.37E-04 on Mesh  13 at (  51  42  40)
       ---------------------------------------------------------------
       Mesh    1
       Max CFL number:  0.11E-01 at (   6,   2,   9)
       Max divergence:  0.13E-05 at (  80,   8,  20)
       Min divergence: -0.14E-05 at (  24,  42,   8)
       Max VN number:   0.89E-02 at (  37,  28,   4)
       Radiation Loss to Boundaries:        -0.006 kW
       Mesh    2
       Max CFL number:  0.10E-01 at (  96,  35,  33)
       Max divergence:  0.13E-05 at (  21,   4,  30)
       Min divergence: -0.14E-05 at (  74,  39,  26)
       Max VN number:   0.86E-02 at (  75,  47,  33)
       Radiation Loss to Boundaries:        -0.007 kW
       Mesh    3
       Max CFL number:  0.11E-01 at (  88,  13,  17)
       Max divergence:  0.12E-05 at (  87,  19,  23)
       Min divergence: -0.16E-05 at (  50,  49,   8)
       Max VN number:   0.90E-02 at (  87,  28,  26)
       Radiation Loss to Boundaries:        -0.008 kW
       Mesh    4
       Max CFL number:  0.11E-01 at (  32,  40,  35)
       Max divergence:  0.12E-05 at (  57,  27,   4)
       Min divergence: -0.16E-05 at (  73,  49,  35)
       Max VN number:   0.86E-02 at (  90,  30,   5)
       Radiation Loss to Boundaries:        -0.010 kW
       Mesh    5
       Max CFL number:  0.11E-01 at (   3,   6,   5)
       Max divergence:  0.13E-05 at (  33,  25,  18)
       Min divergence: -0.16E-05 at (  14,  31,   8)
       Max VN number:   0.86E-02 at (  14,  31,   8)
       Radiation Loss to Boundaries:        -0.010 kW
       Mesh    6
       Max CFL number:  0.11E-01 at (  42,   8,  24)
       Max divergence:  0.13E-05 at (   6,  24,  19)
       Min divergence: -0.15E-05 at (  63,  35,   6)
       Max VN number:   0.86E-02 at (  72,  30,  30)
       Radiation Loss to Boundaries:        -0.007 kW
       Mesh    7
       Max CFL number:  0.11E-01 at (  70,   9,   2)
       Max divergence:  0.12E-05 at (  47,  26,  34)
       Min divergence: -0.14E-05 at (  53,   7,   3)
       Max VN number:   0.86E-02 at (  11,  29,  17)
       Radiation Loss to Boundaries:        -0.006 kW
       Mesh    8
       Max CFL number:  0.11E-01 at (  56,  19,  34)
       Max divergence:  0.13E-05 at (  29,  30,  30)
       Min divergence: -0.16E-05 at (  38,   8,  13)
       Max VN number:   0.87E-02 at (  38,   8,  13)
       Radiation Loss to Boundaries:        -0.004 kW
       Mesh    9
       Max CFL number:  0.11E-01 at (  31,  13,  12)
       Max divergence:  0.12E-05 at (  45,  41,  11)
       Min divergence: -0.15E-05 at (  27,  41,  41)
       Max VN number:   0.85E-02 at (  27,  41,  41)
       Radiation Loss to Boundaries:        -0.004 kW
       Mesh   10
       Max CFL number:  0.11E-01 at (  50,  13,  40)
       Max divergence:  0.13E-05 at (   8,  13,  74)
       Min divergence: -0.15E-05 at (  32,  48,  51)
       Max VN number:   0.86E-02 at (  23,  40,  65)
       No. of Lagrangian Particles:             8
       Radiation Loss to Boundaries:        -0.004 kW
       Mesh   11
       Max CFL number:  0.10E-01 at (  33,  40,  12)
       Max divergence:  0.13E-05 at (  41,  22,  19)
       Min divergence: -0.16E-05 at (  26,  34,  47)
       Max VN number:   0.87E-02 at (  28,  19,  51)
       Radiation Loss to Boundaries:        -0.004 kW
       Mesh   12
       Max CFL number:  0.11E-01 at (  27,  46,  40)
       Max divergence:  0.13E-05 at (  37,   8,  34)
       Min divergence: -0.14E-05 at (   4,  44,  17)
       Max VN number:   0.89E-02 at (  23,  37,  75)
       No. of Lagrangian Particles:             8
       Radiation Loss to Boundaries:        -0.004 kW
       Mesh   13
       Max CFL number:  0.10E-01 at (  49,  24,  65)
       Max divergence:  0.12E-05 at (  46,  24,  42)
       Min divergence: -0.15E-05 at (  29,  21,  11)
       Max VN number:   0.84E-02 at (  14,  34,  56)
       Radiation Loss to Boundaries:        -0.006 kW
       Mesh   14
       Max CFL number:  0.10E-01 at (  45,  22,  51)
       Max divergence:  0.13E-05 at (  26,  18,  65)
       Min divergence: -0.14E-05 at (  25,  17,  25)
       Max VN number:   0.87E-02 at (  25,  46,   8)
       No. of Lagrangian Particles:             8
       Radiation Loss to Boundaries:        -0.003 kW
       Mesh   15
       Max CFL number:  0.11E-01 at (   2,  16,  19)
       Max divergence:  0.12E-05 at (  15,  28,  69)
       Min divergence: -0.14E-05 at (  23,  14,  38)
       Max VN number:   0.82E-02 at (  29,  10,  28)
       Radiation Loss to Boundaries:        -0.003 kW
       Mesh   16
       Max CFL number:  0.11E-01 at (  50,  11,  47)
       Max divergence:  0.13E-05 at (  47,   5,  71)
       Min divergence: -0.14E-05 at (  27,   6,  33)
       Max VN number:   0.89E-02 at (   8,   7,  28)
       Radiation Loss to Boundaries:        -0.002 kW

       Time Step       9   November  2, 2020  15:22:02
       Step Size:    0.556E-01 s, Total Time:       0.50 s
       Pressure Iterations:      1
       Maximum Velocity Error:  0.37E-03 on Mesh  10 at (  52  51  65)
       Maximum Pressure Error:  0.43E-04 on Mesh  14 at (  51  34  66)
       ---------------------------------------------------------------
       Mesh    1
       Max CFL number:  0.11E-01 at (   6,   2,   9)
       Max divergence:  0.13E-05 at (  80,   8,  20)
       Min divergence: -0.14E-05 at (  24,  42,   8)
       Max VN number:   0.89E-02 at (  37,  28,   4)
       Radiation Loss to Boundaries:        -0.006 kW
       Mesh    2
       Max CFL number:  0.10E-01 at (  96,  35,  33)
       Max divergence:  0.13E-05 at (  21,   4,  30)
       Min divergence: -0.14E-05 at (  74,  39,  26)
       Max VN number:   0.86E-02 at (  75,  47,  33)
       Radiation Loss to Boundaries:        -0.007 kW
       Mesh    3
       Max CFL number:  0.11E-01 at (  88,  13,  17)
       Max divergence:  0.12E-05 at (  87,  19,  23)
       Min divergence: -0.16E-05 at (  50,  49,   8)
       Max VN number:   0.89E-02 at (  87,  28,  26)
       Radiation Loss to Boundaries:        -0.008 kW
       Mesh    4
       Max CFL number:  0.11E-01 at (  32,  40,  35)
       Max divergence:  0.12E-05 at (  57,  27,   4)
       Min divergence: -0.16E-05 at (  73,  49,  35)
       Max VN number:   0.86E-02 at (  90,  30,   5)
       Radiation Loss to Boundaries:        -0.010 kW
       Mesh    5
       Max CFL number:  0.11E-01 at (   3,   6,   5)
       Max divergence:  0.13E-05 at (  33,  25,  18)
       Min divergence: -0.16E-05 at (  14,  31,   8)
       Max VN number:   0.86E-02 at (  14,  31,   8)
       Radiation Loss to Boundaries:        -0.010 kW
       Mesh    6
       Max CFL number:  0.10E-01 at (  42,   8,  24)
       Max divergence:  0.13E-05 at (   6,  24,  19)
       Min divergence: -0.15E-05 at (  63,  35,   6)
       Max VN number:   0.86E-02 at (  72,  30,  30)
       Radiation Loss to Boundaries:        -0.007 kW
       Mesh    7
       Max CFL number:  0.11E-01 at (  70,   9,   2)
       Max divergence:  0.12E-05 at (  47,  26,  34)
       Min divergence: -0.14E-05 at (  53,   7,   3)
       Max VN number:   0.85E-02 at (  11,  29,  17)
       Radiation Loss to Boundaries:        -0.006 kW
       Mesh    8
       Max CFL number:  0.10E-01 at (  56,  19,  34)
       Max divergence:  0.13E-05 at (  29,  30,  30)
       Min divergence: -0.16E-05 at (  38,   8,  13)
       Max VN number:   0.87E-02 at (  38,   8,  13)
       Radiation Loss to Boundaries:        -0.004 kW
       Mesh    9
       Max CFL number:  0.11E-01 at (  31,  13,  12)
       Max divergence:  0.12E-05 at (  45,  41,  11)
       Min divergence: -0.15E-05 at (  27,  41,  41)
       Max VN number:   0.84E-02 at (  27,  41,  41)
       Radiation Loss to Boundaries:        -0.004 kW
       Mesh   10
       Max CFL number:  0.11E-01 at (  50,  13,  40)
       Max divergence:  0.13E-05 at (   8,  13,  74)
       Min divergence: -0.15E-05 at (  32,  48,  51)
       Max VN number:   0.86E-02 at (  23,  40,  65)
       No. of Lagrangian Particles:             8
       Radiation Loss to Boundaries:        -0.004 kW
       Mesh   11
       Max CFL number:  0.10E-01 at (  33,  40,  12)
       Max divergence:  0.13E-05 at (  41,  22,  19)
       Min divergence: -0.16E-05 at (  26,  34,  47)
       Max VN number:   0.87E-02 at (  28,  19,  51)
       Radiation Loss to Boundaries:        -0.004 kW
       Mesh   12
       Max CFL number:  0.11E-01 at (  27,  46,  40)
       Max divergence:  0.13E-05 at (  37,   8,  34)
       Min divergence: -0.15E-05 at (   4,  44,  17)
       Max VN number:   0.89E-02 at (  23,  37,  75)
       No. of Lagrangian Particles:             8
       Radiation Loss to Boundaries:        -0.004 kW
       Mesh   13
       Max CFL number:  0.10E-01 at (  49,  24,  65)
       Max divergence:  0.12E-05 at (  46,  24,  42)
       Min divergence: -0.15E-05 at (  29,  21,  11)
       Max VN number:   0.84E-02 at (  14,  34,  56)
       Radiation Loss to Boundaries:        -0.006 kW
       Mesh   14
       Max CFL number:  0.10E-01 at (  45,  22,  51)
       Max divergence:  0.13E-05 at (  26,  18,  65)
       Min divergence: -0.14E-05 at (  25,  17,  25)
       Max VN number:   0.86E-02 at (  25,  46,   8)
       No. of Lagrangian Particles:             8
       Radiation Loss to Boundaries:        -0.003 kW
       Mesh   15
       Max CFL number:  0.11E-01 at (   2,  16,  19)
       Max divergence:  0.12E-05 at (  15,  28,  69)
       Min divergence: -0.14E-05 at (  23,  14,  38)
       Max VN number:   0.82E-02 at (  29,  10,  28)
       Radiation Loss to Boundaries:        -0.003 kW
       Mesh   16
       Max CFL number:  0.11E-01 at (  50,  11,  47)
       Max divergence:  0.13E-05 at (  47,   5,  71)
       Min divergence: -0.14E-05 at (  27,   6,  33)
       Max VN number:   0.89E-02 at (   8,   7,  28)
       Radiation Loss to Boundaries:        -0.002 kW

       Time Step      10   November  2, 2020  15:22:03
       Step Size:    0.556E-01 s, Total Time:       0.56 s
       Pressure Iterations:      1
       Maximum Velocity Error:  0.30E-03 on Mesh   4 at (  30  51  36)
       Maximum Pressure Error:  0.45E-04 on Mesh  14 at (  51  34  66)
       ---------------------------------------------------------------
       Mesh    1
       Max CFL number:  0.10E-01 at (   6,   2,   9)
       Max divergence:  0.13E-05 at (  80,   8,  20)
       Min divergence: -0.14E-05 at (  24,  42,   8)
       Max VN number:   0.88E-02 at (  37,  28,   4)
       Radiation Loss to Boundaries:        -0.004 kW
       Mesh    2
       Max CFL number:  0.10E-01 at (  96,  35,  33)
       Max divergence:  0.13E-05 at (  21,   4,  30)
       Min divergence: -0.14E-05 at (  25,  27,   5)
       Max VN number:   0.86E-02 at (  75,  47,  33)
       Radiation Loss to Boundaries:        -0.005 kW
       Mesh    3
       Max CFL number:  0.11E-01 at (  88,  13,  17)
       Max divergence:  0.12E-05 at (  81,  18,  12)
       Min divergence: -0.16E-05 at (  50,  49,   8)
       Max VN number:   0.89E-02 at (  87,  28,  26)
       Radiation Loss to Boundaries:        -0.005 kW
       Mesh    4
       Max CFL number:  0.11E-01 at (  32,  40,  35)
       Max divergence:  0.12E-05 at (  57,  27,   4)
       Min divergence: -0.15E-05 at (  73,  49,  35)
       Max VN number:   0.86E-02 at (  90,  30,   5)
       Radiation Loss to Boundaries:        -0.006 kW
       Mesh    5
       Max CFL number:  0.11E-01 at (   3,   6,   5)
       Max divergence:  0.13E-05 at (  33,  25,  18)
       Min divergence: -0.16E-05 at (  14,  31,   8)
       Max VN number:   0.86E-02 at (  14,  31,   8)
       Radiation Loss to Boundaries:        -0.006 kW
       Mesh    6
       Max CFL number:  0.10E-01 at (  42,   8,  24)
       Max divergence:  0.13E-05 at (  27,  28,  15)
       Min divergence: -0.14E-05 at (  63,  35,   6)
       Max VN number:   0.86E-02 at (  72,  30,  30)
       Radiation Loss to Boundaries:        -0.005 kW
       Mesh    7
       Max CFL number:  0.10E-01 at (  70,   9,   2)
       Max divergence:  0.12E-05 at (  47,  26,  34)
       Min divergence: -0.14E-05 at (  53,   7,   3)
       Max VN number:   0.85E-02 at (  11,  29,  17)
       Radiation Loss to Boundaries:        -0.004 kW
       Mesh    8
       Max CFL number:  0.10E-01 at (  56,  19,  34)
       Max divergence:  0.13E-05 at (  29,  30,  30)
       Min divergence: -0.15E-05 at (  38,   8,  13)
       Max VN number:   0.87E-02 at (  38,   8,  13)
       Radiation Loss to Boundaries:        -0.003 kW
       Mesh    9
       Max CFL number:  0.11E-01 at (  31,  13,  12)
       Max divergence:  0.13E-05 at (  45,  41,  11)
       Min divergence: -0.14E-05 at (  27,  41,  41)
       Max VN number:   0.84E-02 at (  27,  41,  41)
       Radiation Loss to Boundaries:        -0.002 kW
       Mesh   10
       Max CFL number:  0.11E-01 at (  50,  13,  40)
       Max divergence:  0.13E-05 at (   8,  13,  74)
       Min divergence: -0.13E-05 at (  10,  34,  48)
       Max VN number:   0.85E-02 at (  23,  40,  65)
       No. of Lagrangian Particles:             8
       Radiation Loss to Boundaries:        -0.002 kW
       Mesh   11
       Max CFL number:  0.10E-01 at (  33,  40,  12)
       Max divergence:  0.13E-05 at (  41,  22,  19)
       Min divergence: -0.15E-05 at (  26,  34,  47)
       Max VN number:   0.87E-02 at (  28,  19,  51)
       Radiation Loss to Boundaries:        -0.002 kW
       Mesh   12
       Max CFL number:  0.11E-01 at (  27,  46,  40)
       Max divergence:  0.13E-05 at (  37,   8,  34)
       Min divergence: -0.14E-05 at (   4,  44,  17)
       Max VN number:   0.89E-02 at (  23,  37,  75)
       No. of Lagrangian Particles:             8
       Radiation Loss to Boundaries:        -0.002 kW
       Mesh   13
       Max CFL number:  0.10E-01 at (  49,  24,  65)
       Max divergence:  0.12E-05 at (  46,  24,  42)
       Min divergence: -0.14E-05 at (  29,  21,  11)
       Max VN number:   0.84E-02 at (  14,  34,  56)
       Radiation Loss to Boundaries:        -0.003 kW
       Mesh   14
       Max CFL number:  0.10E-01 at (  45,  22,  51)
       Max divergence:  0.13E-05 at (   4,   9,  58)
       Min divergence: -0.14E-05 at (  25,  17,  25)
       Max VN number:   0.86E-02 at (  25,  46,   8)
       No. of Lagrangian Particles:             8
       Radiation Loss to Boundaries:        -0.002 kW
       Mesh   15
       Max CFL number:  0.11E-01 at (   2,  16,  19)
       Max divergence:  0.12E-05 at (  15,  28,  69)
       Min divergence: -0.14E-05 at (  23,  14,  38)
       Max VN number:   0.82E-02 at (  29,  10,  28)
       Radiation Loss to Boundaries:        -0.002 kW
       Mesh   16
       Max CFL number:  0.11E-01 at (  50,  11,  47)
       Max divergence:  0.13E-05 at (  47,   5,  71)
       Min divergence: -0.14E-05 at (  27,   6,  33)
       Max VN number:   0.89E-02 at (   8,   7,  28)
       Radiation Loss to Boundaries:        -0.002 kW

       Time Step      20   November  2, 2020  15:22:12
       Step Size:    0.556E-01 s, Total Time:       1.11 s
       Pressure Iterations:      1
       Maximum Velocity Error:  0.13E-03 on Mesh  10 at (  52  51  57)
       Maximum Pressure Error:  0.27E-04 on Mesh  11 at (  51   3  66)
       ---------------------------------------------------------------
       Mesh    1
       Max CFL number:  0.10E-01 at (   6,   2,   9)
       Max divergence:  0.14E-05 at (   5,  46,   8)
       Min divergence: -0.14E-05 at (  65,  25,   5)
       Max VN number:   0.86E-02 at (  37,  28,   4)
       Radiation Loss to Boundaries:        -0.001 kW
       Mesh    2
       Max CFL number:  0.10E-01 at (  96,  35,  33)
       Max divergence:  0.14E-05 at (  21,   4,  30)
       Min divergence: -0.13E-05 at (  91,   6,  28)
       Max VN number:   0.84E-02 at (  75,  47,  33)
       Radiation Loss to Boundaries:        -0.002 kW
       Mesh    3
       Max CFL number:  0.10E-01 at (  88,  13,  17)
       Max divergence:  0.13E-05 at (  81,  18,  12)
       Min divergence: -0.15E-05 at (  50,  49,   8)
       Max VN number:   0.87E-02 at (  87,  28,  26)
       Radiation Loss to Boundaries:        -0.002 kW
       Mesh    4
       Max CFL number:  0.10E-01 at (  53,  45,   2)
       Max divergence:  0.13E-05 at (  57,  27,   4)
       Min divergence: -0.14E-05 at (  73,  49,  35)
       Max VN number:   0.84E-02 at (  46,  16,   9)
       Radiation Loss to Boundaries:        -0.002 kW
       Mesh    5
       Max CFL number:  0.11E-01 at (   3,   7,   5)
       Max divergence:  0.14E-05 at (  33,  25,  18)
       Min divergence: -0.15E-05 at (  14,  31,   8)
       Max VN number:   0.83E-02 at (  25,   4,   8)
       Radiation Loss to Boundaries:        -0.002 kW
       Mesh    6
       Max CFL number:  0.10E-01 at (  41,   8,  24)
       Max divergence:  0.13E-05 at (  62,  26,  30)
       Min divergence: -0.14E-05 at (  63,  35,   6)
       Max VN number:   0.83E-02 at (  48,  26,  17)
       Radiation Loss to Boundaries:        -0.002 kW
       Mesh    7
       Max CFL number:  0.10E-01 at (  70,   9,   3)
       Max divergence:  0.12E-05 at (  53,   8,   9)
       Min divergence: -0.13E-05 at (  53,   7,   3)
       Max VN number:   0.84E-02 at (  41,  38,   5)
       Radiation Loss to Boundaries:        -0.002 kW
       Mesh    8
       Max CFL number:  0.10E-01 at (  56,  19,  34)
       Max divergence:  0.14E-05 at (  29,  30,  30)
       Min divergence: -0.15E-05 at (  38,   8,  13)
       Max VN number:   0.85E-02 at (  38,   8,  13)
       Radiation Loss to Boundaries:        -0.001 kW
       Mesh    9
       Max CFL number:  0.10E-01 at (  31,  13,  12)
       Max divergence:  0.13E-05 at (  45,  41,  11)
       Min divergence: -0.14E-05 at (  27,  41,  41)
       Max VN number:   0.82E-02 at (  25,  16,  51)
       Radiation Loss to Boundaries:        -0.001 kW
       Mesh   10
       Max CFL number:  0.11E-01 at (   8,  47,  15)
       Max divergence:  0.13E-05 at (   8,  13,  74)
[...]
       Max divergence:  0.91E-06 at (  37,  37,  26)
       Min divergence: -0.90E-06 at (  15,  40,  28)
       Max VN number:   0.19E-02 at (  49,  20,  68)
       No. of Lagrangian Particles:             8
       Mesh   13
       Max CFL number:  0.25E-02 at (  52,  45,  47)
       Max divergence:  0.98E-06 at (  50,  41,  37)
       Min divergence: -0.97E-06 at (  52,   7,  20)
       Max VN number:   0.18E-02 at (  45,  30,  73)
       Mesh   14
       Max CFL number:  0.25E-02 at (  50,  25,  69)
       Max divergence:  0.91E-06 at (  50,   2,  71)
       Min divergence: -0.92E-06 at (  49,  37,  62)
       Max VN number:   0.18E-02 at (  51,   5,  42)
       No. of Lagrangian Particles:             8
       Mesh   15
       Max CFL number:  0.25E-02 at (  52,  16,  12)
       Max divergence:  0.86E-06 at (  50,  18,  30)
       Min divergence: -0.94E-06 at (  50,   6,  32)
       Max VN number:   0.18E-02 at (  51,  37,  58)
       Mesh   16
       Max CFL number:  0.25E-02 at (  50,  33,  73)
       Max divergence:  0.91E-06 at (  30,  31,  52)
       Min divergence: -0.92E-06 at (  26,  13,  41)
       Max VN number:   0.17E-02 at (  49,  21,  30)

       Time Step     800   November  2, 2020  15:33:11
       Step Size:    0.190E-01 s, Total Time:      22.50 s
       Pressure Iterations:      1
       Maximum Velocity Error:  0.29E-01 on Mesh   1 at (  51   1  37)
       Maximum Pressure Error:  0.25E+03 on Mesh   1 at (  50   1  10)
       ---------------------------------------------------------------
       Mesh    1
       Max CFL number:  0.94E+00 at (  50,   1,  11)
       Max divergence:  0.11E+02 at (  51,   1,  36)
       Min divergence: -0.35E+01 at (  49,   2,   8)
       Max VN number:   0.47E+00 at (  47,   1,  36)
       No. of Lagrangian Particles:          4671
       Total Heat Release Rate:            140.722 kW
       Radiation Loss to Boundaries:       -38.390 kW
       Mesh    2
       Max CFL number:  0.28E-01 at (  65,   1,  36)
       Max divergence:  0.12E-03 at (  42,   1,  12)
       Min divergence: -0.12E-05 at (   3,  23,   6)
       Max VN number:   0.46E-02 at (  65,   1,  36)
       Radiation Loss to Boundaries:         0.779 kW
       Mesh    3
       Max CFL number:  0.30E-02 at (   7,   7,  36)
       Max divergence:  0.38E-04 at (  34,   1,  21)
       Min divergence: -0.68E-06 at (  10,  49,  19)
       Max VN number:   0.18E-02 at (  23,  44,  35)
       Radiation Loss to Boundaries:         0.191 kW
       Mesh    4
       Max CFL number:  0.29E-02 at (  97,   5,  29)
       Max divergence:  0.15E-04 at (  72,   1,  32)
       Min divergence: -0.97E-06 at (   3,  39,  24)
       Max VN number:   0.19E-02 at (  70,  44,  19)
       Radiation Loss to Boundaries:         0.054 kW
       Mesh    5
       Max CFL number:  0.28E-02 at (  97,  12,  24)
       Max divergence:  0.30E-05 at (  78,   1,  36)
       Min divergence: -0.84E-06 at (  39,  40,  12)
       Max VN number:   0.18E-02 at (  65,  45,  35)
       Radiation Loss to Boundaries:         0.005 kW
       Mesh    6
       Max CFL number:  0.28E-02 at (   3,  45,  31)
       Max divergence:  0.11E-05 at (   3,  23,   4)
       Min divergence: -0.90E-06 at (  63,  35,   5)
       Max VN number:   0.18E-02 at (  53,  16,   3)
       Mesh    7
       Max CFL number:  0.35E-02 at (  42,  36,   2)
       Max divergence:  0.92E-06 at (  34,  30,   3)
       Min divergence: -0.90E-06 at (  38,  49,  33)
       Max VN number:   0.18E-02 at (   4,  28,  24)
       Mesh    8
       Max CFL number:  0.29E-02 at (   3,  13,  14)
       Max divergence:  0.94E-06 at (  58,  18,   4)
       Min divergence: -0.98E-06 at (  57,  18,  35)
       Max VN number:   0.18E-02 at (  57,  18,  35)
       Mesh    9
       Max CFL number:  0.34E-02 at (  51,  12,   1)
       Max divergence:  0.33E-04 at (  52,  12,   1)
       Min divergence: -0.95E-06 at (  50,  24,  74)
       Max VN number:   0.19E-02 at (  52,  13,   5)
       Radiation Loss to Boundaries:         0.010 kW
       Mesh   10
       Max CFL number:  0.59E-02 at (  52,  28,   5)
       Max divergence:  0.28E-05 at (  51,   1,   1)
       Min divergence: -0.83E-06 at (  51,  12,  64)
       Max VN number:   0.22E-02 at (  52,  28,   5)
       No. of Lagrangian Particles:             8
       Radiation Loss to Boundaries:         0.001 kW
       Mesh   11
       Max CFL number:  0.24E-02 at (  52,  11,   6)
       Max divergence:  0.91E-06 at (  32,  41,  23)
       Min divergence: -0.97E-06 at (  41,  14,  55)
       Max VN number:   0.17E-02 at (  28,  39,  51)
       Mesh   12
       Max CFL number:  0.25E-02 at (  41,  11,   1)
       Max divergence:  0.88E-06 at (  37,  37,  26)
       Min divergence: -0.87E-06 at (  15,  40,  28)
       Max VN number:   0.19E-02 at (  49,  20,  68)
       No. of Lagrangian Particles:             8
       Mesh   13
       Max CFL number:  0.26E-02 at (  52,  45,  47)
       Max divergence:  0.95E-06 at (  50,  41,  37)
       Min divergence: -0.96E-06 at (  52,   7,  20)
       Max VN number:   0.17E-02 at (  38,  19,   2)
       Mesh   14
       Max CFL number:  0.25E-02 at (  51,  46,  24)
       Max divergence:  0.87E-06 at (  45,   4,  57)
       Min divergence: -0.90E-06 at (  49,  37,  62)
       Max VN number:   0.18E-02 at (  51,   5,  42)
       No. of Lagrangian Particles:             8
       Mesh   15
       Max CFL number:  0.25E-02 at (  52,  16,  12)
       Max divergence:  0.83E-06 at (  50,  18,  30)
       Min divergence: -0.93E-06 at (  50,   6,  31)
       Max VN number:   0.18E-02 at (  51,  37,  58)
       Mesh   16
       Max CFL number:  0.25E-02 at (  50,  33,  73)
       Max divergence:  0.87E-06 at (  30,  31,  52)
       Min divergence: -0.88E-06 at (  15,  29,   4)
       Max VN number:   0.18E-02 at (  27,  45,  31)

       Time Step     900   November  2, 2020  15:34:35
       Step Size:    0.188E-01 s, Total Time:      24.26 s
       Pressure Iterations:      1
       Maximum Velocity Error:  0.25E-01 on Mesh   1 at (  48   1   1)
       Maximum Pressure Error:  0.84E+02 on Mesh   1 at (  48   1   5)
       ---------------------------------------------------------------
       Mesh    1
       Max CFL number:  0.88E+00 at (  49,   1,  36)
       Max divergence:  0.12E+02 at (  50,   1,  36)
       Min divergence: -0.36E+01 at (  49,   2,   4)
       Max VN number:   0.44E+00 at (  47,   1,  36)
       No. of Lagrangian Particles:          4717
       Total Heat Release Rate:            135.271 kW
       Radiation Loss to Boundaries:       -40.623 kW
       Mesh    2
       Max CFL number:  0.15E+00 at (  61,   1,  36)
       Max divergence:  0.58E-02 at (  63,   3,  36)
       Min divergence: -0.92E-02 at (  62,   2,  36)
       Max VN number:   0.40E-01 at (  63,   2,  36)
       No. of Lagrangian Particles:           190
       Radiation Loss to Boundaries:         0.675 kW
       Mesh    3
       Max CFL number:  0.29E-02 at (   7,   7,  36)
       Max divergence:  0.49E-04 at (  35,   1,  22)
       Min divergence: -0.64E-06 at (  10,  49,  19)
       Max VN number:   0.17E-02 at (  23,  44,  35)
       Radiation Loss to Boundaries:         0.231 kW
       Mesh    4
       Max CFL number:  0.29E-02 at (  97,   5,  29)
       Max divergence:  0.13E-04 at (  72,   1,  31)
       Min divergence: -0.96E-06 at (   3,  39,  24)
       Max VN number:   0.18E-02 at (  70,  44,  19)
       Radiation Loss to Boundaries:         0.052 kW
       Mesh    5
       Max CFL number:  0.28E-02 at (   3,   7,   5)
       Max divergence:  0.31E-05 at (  78,   1,  36)
       Min divergence: -0.80E-06 at (  52,  18,  17)
       Max VN number:   0.17E-02 at (   4,  37,  12)
       Radiation Loss to Boundaries:         0.005 kW
       Mesh    6
       Max CFL number:  0.28E-02 at (   3,  45,  31)
       Max divergence:  0.11E-05 at (   3,  23,   4)
       Min divergence: -0.84E-06 at (  63,  35,   5)
       Max VN number:   0.17E-02 at (  53,  16,   3)
       Mesh    7
       Max CFL number:  0.36E-02 at (  42,  36,   2)
       Max divergence:  0.89E-06 at (  34,  30,   3)
       Min divergence: -0.88E-06 at (  38,  49,  33)
       Max VN number:   0.17E-02 at (   4,  28,  24)
       Mesh    8
       Max CFL number:  0.30E-02 at (   3,  13,  14)
       Max divergence:  0.91E-06 at (  58,  18,   4)
       Min divergence: -0.92E-06 at (  57,  18,  35)
       Max VN number:   0.17E-02 at (  57,  18,  35)
       Mesh    9
       Max CFL number:  0.43E-02 at (  52,  14,   1)
       Max divergence:  0.25E-04 at (  52,  12,   1)
       Min divergence: -0.92E-06 at (  50,  24,  74)
       Max VN number:   0.22E-02 at (  52,  13,   5)
       Radiation Loss to Boundaries:         0.010 kW
       Mesh   10
       Max CFL number:  0.78E-02 at (  52,  28,   5)
       Max divergence:  0.30E-05 at (  51,   1,   1)
       Min divergence: -0.79E-06 at (  51,  12,  64)
       Max VN number:   0.28E-02 at (  52,  30,   5)
       No. of Lagrangian Particles:             8
       Radiation Loss to Boundaries:         0.002 kW
       Mesh   11
       Max CFL number:  0.23E-02 at (  52,  11,   6)
       Max divergence:  0.87E-06 at (  52,  11,   6)
       Min divergence: -0.92E-06 at (  41,  14,  55)
       Max VN number:   0.17E-02 at (  28,  39,  51)
       Mesh   12
       Max CFL number:  0.24E-02 at (  41,  11,   1)
       Max divergence:  0.85E-06 at (  37,  37,  26)
       Min divergence: -0.84E-06 at (  15,  40,  28)
       Max VN number:   0.18E-02 at (  49,  20,  68)
       No. of Lagrangian Particles:             8
       Mesh   13
       Max CFL number:  0.25E-02 at (  52,  45,  47)
       Max divergence:  0.91E-06 at (  50,  41,  37)
       Min divergence: -0.93E-06 at (  52,   7,  20)
       Max VN number:   0.17E-02 at (  47,  39,  39)
       Mesh   14
       Max CFL number:  0.24E-02 at (  51,  46,  24)
       Max divergence:  0.85E-06 at (  45,   4,  57)
       Min divergence: -0.87E-06 at (  49,  37,  62)
       Max VN number:   0.17E-02 at (  51,  46,  47)
       No. of Lagrangian Particles:             8
       Mesh   15
       Max CFL number:  0.25E-02 at (  52,  16,  12)
       Max divergence:  0.80E-06 at (  50,  18,  30)
       Min divergence: -0.92E-06 at (  50,   6,  31)
       Max VN number:   0.17E-02 at (  51,  37,  58)
       Mesh   16
       Max CFL number:  0.24E-02 at (   9,  17,   1)
       Max divergence:  0.83E-06 at (  30,  31,  52)
       Min divergence: -0.85E-06 at (  15,  29,   4)
       Max VN number:   0.17E-02 at (  27,  45,  31)

       Time Step    1000   November  2, 2020  15:35:59
       Step Size:    0.186E-01 s, Total Time:      26.08 s
       Pressure Iterations:      1
       Maximum Velocity Error:  0.29E-01 on Mesh   1 at (  49   1   1)
       Maximum Pressure Error:  0.67E+02 on Mesh   1 at (  49   4  10)
       ---------------------------------------------------------------
       Mesh    1
       Max CFL number:  0.90E+00 at (  50,   1,  36)
       Max divergence:  0.12E+02 at (  50,   1,  36)
       Min divergence: -0.34E+01 at (  49,   3,   8)
       Max VN number:   0.39E+00 at (  50,   1,  36)
       No. of Lagrangian Particles:          4590
       Total Heat Release Rate:            174.959 kW
       Radiation Loss to Boundaries:       -54.383 kW
       Mesh    2
       Max CFL number:  0.17E+00 at (  49,   2,  36)
       Max divergence:  0.68E-02 at (  66,  10,  36)
       Min divergence: -0.12E-01 at (  66,   8,  36)
       Max VN number:   0.44E-01 at (  65,   9,  36)
       No. of Lagrangian Particles:           659
       Radiation Loss to Boundaries:         0.784 kW
       Mesh    3
       Max CFL number:  0.28E-02 at (  64,   9,  24)
       Max divergence:  0.44E-04 at (  34,   1,  21)
       Min divergence: -0.61E-06 at (  10,  49,  19)
       Max VN number:   0.16E-02 at (  44,  10,   3)
       Radiation Loss to Boundaries:         0.209 kW
       Mesh    4
       Max CFL number:  0.28E-02 at (  97,   5,  29)
       Max divergence:  0.11E-04 at (  26,   1,  32)
       Min divergence: -0.94E-06 at (   3,  39,  24)
       Max VN number:   0.17E-02 at (  70,  44,  19)
       Radiation Loss to Boundaries:         0.046 kW
       Mesh    5
       Max CFL number:  0.29E-02 at (   3,   7,   5)
       Max divergence:  0.39E-05 at (  80,   1,  36)
       Min divergence: -0.80E-06 at (  97,  29,  17)
       Max VN number:   0.17E-02 at (   4,  37,  12)
       Radiation Loss to Boundaries:         0.006 kW
       Mesh    6
       Max CFL number:  0.28E-02 at (   3,  45,  31)
       Max divergence:  0.10E-05 at (   3,  23,   4)
       Min divergence: -0.82E-06 at (   3,   8,  26)
       Max VN number:   0.17E-02 at (  96,  45,  34)
       Mesh    7
       Max CFL number:  0.35E-02 at (  42,  36,   2)
       Max divergence:  0.86E-06 at (  34,  30,   3)
       Min divergence: -0.84E-06 at (  38,  49,  33)
       Max VN number:   0.16E-02 at (   4,  28,  24)
       Mesh    8
       Max CFL number:  0.29E-02 at (   3,  13,  14)
       Max divergence:  0.89E-06 at (  97,   3,  33)
       Min divergence: -0.88E-06 at (  57,  18,  35)
       Max VN number:   0.16E-02 at (  57,  18,  34)
       Mesh    9
       Max CFL number:  0.56E-02 at (  52,  13,   5)
       Max divergence:  0.33E-04 at (  52,  11,   1)
       Min divergence: -0.89E-06 at (  50,  24,  74)
       Max VN number:   0.26E-02 at (  52,  13,   5)
       Radiation Loss to Boundaries:         0.010 kW
       Mesh   10
       Max CFL number:  0.87E-02 at (  52,  29,   3)
       Max divergence:  0.23E-05 at (  52,   5,   5)
       Min divergence: -0.75E-06 at (  21,  46,  52)
       Max VN number:   0.29E-02 at (  52,  30,   5)
       No. of Lagrangian Particles:             8
       Radiation Loss to Boundaries:         0.001 kW
       Mesh   11
       Max CFL number:  0.22E-02 at (  52,  11,   6)
       Max divergence:  0.87E-06 at (  52,  11,   6)
       Min divergence: -0.87E-06 at (  41,  14,  55)
       Max VN number:   0.16E-02 at (  28,  39,  51)
       Mesh   12
       Max CFL number:  0.24E-02 at (  41,  11,   1)
       Max divergence:  0.82E-06 at (  37,  37,  26)
       Min divergence: -0.80E-06 at (  15,  40,  28)
       Max VN number:   0.17E-02 at (  49,  20,  68)
       No. of Lagrangian Particles:             8
       Mesh   13
       Max CFL number:  0.24E-02 at (  52,  45,  47)
       Max divergence:  0.89E-06 at (  50,  41,  37)
       Min divergence: -0.89E-06 at (  52,   7,  20)
       Max VN number:   0.16E-02 at (  47,  39,  39)
       Mesh   14
       Max CFL number:  0.23E-02 at (  51,  46,  24)
       Max divergence:  0.82E-06 at (  50,   2,  72)
       Min divergence: -0.88E-06 at (  50,  46,  30)
       Max VN number:   0.16E-02 at (  51,  46,  47)
       No. of Lagrangian Particles:             8
       Mesh   15
       Max CFL number:  0.24E-02 at (  52,  16,  12)
       Max divergence:  0.76E-06 at (  50,  18,  30)
       Min divergence: -0.90E-06 at (  50,   6,  31)
       Max VN number:   0.17E-02 at (  49,  28,  36)
       Mesh   16
       Max CFL number:  0.23E-02 at (   9,  17,   1)
       Max divergence:  0.79E-06 at (  12,  12,   4)
       Min divergence: -0.81E-06 at (  15,  29,   4)
       Max VN number:   0.17E-02 at (  27,  45,  31)

       Time Step    1100   November  2, 2020  15:37:24
       Step Size:    0.172E-01 s, Total Time:      27.77 s
       Pressure Iterations:      1
       Maximum Velocity Error:  0.32E-01 on Mesh   1 at (  50   1   1)
       Maximum Pressure Error:  0.20E+03 on Mesh   1 at (  49   1   6)
       ---------------------------------------------------------------
       Mesh    1
       Max CFL number:  0.88E+00 at (  48,   1,  36)
       Max divergence:  0.11E+02 at (  51,   1,  36)
       Min divergence: -0.25E+01 at (  49,   2,   3)
       Max VN number:   0.46E+00 at (  48,   1,  36)
       No. of Lagrangian Particles:          5628
       Total Heat Release Rate:            242.794 kW
       Radiation Loss to Boundaries:       -80.706 kW
       Mesh    2
       Max CFL number:  0.17E+00 at (  48,   6,  36)
       Max divergence:  0.75E-02 at (  65,   3,  35)
       Min divergence: -0.15E-01 at (  48,   8,  36)
       Max VN number:   0.42E-01 at (  48,  14,  36)
       No. of Lagrangian Particles:          1340
       Radiation Loss to Boundaries:         0.948 kW
       Mesh    3
       Max CFL number:  0.29E-02 at (  64,   9,  24)
       Max divergence:  0.46E-04 at (  64,   1,  21)
       Min divergence: -0.51E-06 at (  10,  49,  19)
       Max VN number:   0.15E-02 at (  44,  10,   3)
       Radiation Loss to Boundaries:         0.246 kW
       Mesh    4
       Max CFL number:  0.26E-02 at (  97,   5,  29)
       Max divergence:  0.11E-04 at (  26,   1,  32)
       Min divergence: -0.90E-06 at (   3,  39,  24)
       Max VN number:   0.15E-02 at (  70,  44,  19)
       Radiation Loss to Boundaries:         0.058 kW
       Mesh    5
       Max CFL number:  0.28E-02 at (   3,   7,   5)
       Max divergence:  0.34E-05 at (  18,   1,  36)
       Min divergence: -0.80E-06 at (  97,  29,  17)
       Max VN number:   0.15E-02 at (   4,  37,  12)
       Radiation Loss to Boundaries:         0.007 kW
       Mesh    6
       Max CFL number:  0.26E-02 at (   3,  45,  31)
       Max divergence:  0.10E-05 at (   3,  23,   4)
       Min divergence: -0.82E-06 at (   3,   8,  26)
       Max VN number:   0.15E-02 at (  96,  45,  34)
       Mesh    7
       Max CFL number:  0.33E-02 at (  42,  36,   2)
       Max divergence:  0.82E-06 at (  34,  30,   3)
       Min divergence: -0.81E-06 at (  89,  49,  35)
       Max VN number:   0.15E-02 at (   4,  28,  24)
       Mesh    8
       Max CFL number:  0.28E-02 at (   3,  13,  14)
       Max divergence:  0.89E-06 at (  97,   3,  33)
       Min divergence: -0.85E-06 at (  57,  18,  34)
       Max VN number:   0.15E-02 at (  57,  18,  34)
       Mesh    9
       Max CFL number:  0.64E-02 at (  52,  13,   5)
       Max divergence:  0.46E-04 at (  52,  10,   1)
       Min divergence: -0.87E-06 at (  50,  24,  74)
       Max VN number:   0.27E-02 at (  52,  13,   5)
       Radiation Loss to Boundaries:         0.014 kW
       Mesh   10
       Max CFL number:  0.11E-01 at (  52,  29,   4)
       Max divergence:  0.45E-05 at (  52,   1,   1)
       Min divergence: -0.74E-06 at (  51,  12,  63)
       Max VN number:   0.31E-02 at (  52,  30,   5)
       No. of Lagrangian Particles:             8
       Radiation Loss to Boundaries:         0.002 kW
       Mesh   11
       Max CFL number:  0.20E-02 at (  52,  11,   6)
       Max divergence:  0.87E-06 at (  52,  11,   6)
       Min divergence: -0.82E-06 at (  50,  31,  25)
       Max VN number:   0.14E-02 at (  29,  27,  44)
       Mesh   12
       Max CFL number:  0.22E-02 at (  41,  11,   1)
       Max divergence:  0.79E-06 at (  38,  36,  69)
       Min divergence: -0.76E-06 at (  15,  40,  28)
       Max VN number:   0.15E-02 at (  49,  20,  68)
       No. of Lagrangian Particles:             8
       Mesh   13
       Max CFL number:  0.22E-02 at (  52,  45,  47)
       Max divergence:  0.88E-06 at (  50,  41,  37)
       Min divergence: -0.86E-06 at (  52,   7,  20)
       Max VN number:   0.14E-02 at (  38,  19,   2)
       Mesh   14
       Max CFL number:  0.21E-02 at (  51,  46,  24)
       Max divergence:  0.82E-06 at (  50,   2,  72)
       Min divergence: -0.89E-06 at (  50,  46,  30)
       Max VN number:   0.15E-02 at (  51,  46,  47)
       No. of Lagrangian Particles:             8
       Mesh   15
       Max CFL number:  0.21E-02 at (  52,  16,  12)
       Max divergence:  0.75E-06 at (  25,  10,  31)
       Min divergence: -0.88E-06 at (  50,   6,  31)
       Max VN number:   0.15E-02 at (  49,  28,  36)
       Mesh   16
       Max CFL number:  0.21E-02 at (   9,  17,   1)
       Max divergence:  0.77E-06 at (  12,  12,   4)
       Min divergence: -0.78E-06 at (  15,  29,   4)
       Max VN number:   0.15E-02 at (  27,  45,  31)

