
 Fire Dynamics Simulator

 Current Date     : October 28, 2020  11:12:20
 Revision         : FDS6.7.5-0-g71f025606-release
 Revision Date    : Thu Aug 20 16:19:01 2020 -0400
 Compiler         : Intel ifort 19.1.1.216
 Compilation Date : Fri 08/21/2020  04:51 PM

 MPI Enabled;    Number of MPI Processes:       8
 OpenMP Enabled; Number of OpenMP Threads:      1

 MPI version: 3.1
 MPI library version: Intel(R) MPI Library 2019 Update 7 for Windows* OS


 Job TITLE        : 
 Job ID string    : CLT-S9-P0_MLR_3


 Grid Dimensions, Mesh     1

   Cells in the X Direction            98
   Cells in the Y Direction           100
   Cells in the Z Direction            41
   Number of Grid Cells            401800


 Physical Dimensions, Mesh     1

   Length (m)                       9.800
   Width  (m)                      10.000
   Height (m)                       4.100
   Initial Time Step (s)            0.056

 Grid Dimensions, Mesh     2

   Cells in the X Direction            98
   Cells in the Y Direction           100
   Cells in the Z Direction            41
   Number of Grid Cells            401800


 Physical Dimensions, Mesh     2

   Length (m)                       9.800
   Width  (m)                      10.000
   Height (m)                       4.100
   Initial Time Step (s)            0.056

 Grid Dimensions, Mesh     3

   Cells in the X Direction            98
   Cells in the Y Direction           100
   Cells in the Z Direction            41
   Number of Grid Cells            401800


 Physical Dimensions, Mesh     3

   Length (m)                       9.800
   Width  (m)                      10.000
   Height (m)                       4.100
   Initial Time Step (s)            0.056

 Grid Dimensions, Mesh     4

   Cells in the X Direction            98
   Cells in the Y Direction           100
   Cells in the Z Direction            41
   Number of Grid Cells            401800


 Physical Dimensions, Mesh     4

   Length (m)                       9.800
   Width  (m)                      10.000
   Height (m)                       4.100
   Initial Time Step (s)            0.056

 Grid Dimensions, Mesh     5

   Cells in the X Direction            52
   Cells in the Y Direction           100
   Cells in the Z Direction            80
   Number of Grid Cells            416000


 Physical Dimensions, Mesh     5

   Length (m)                       5.200
   Width  (m)                      10.000
   Height (m)                       8.000
   Initial Time Step (s)            0.056

 Grid Dimensions, Mesh     6

   Cells in the X Direction            52
   Cells in the Y Direction           100
   Cells in the Z Direction            80
   Number of Grid Cells            416000


 Physical Dimensions, Mesh     6

   Length (m)                       5.200
   Width  (m)                      10.000
   Height (m)                       8.000
   Initial Time Step (s)            0.056

 Grid Dimensions, Mesh     7

   Cells in the X Direction            52
   Cells in the Y Direction           100
   Cells in the Z Direction            80
   Number of Grid Cells            416000


 Physical Dimensions, Mesh     7

   Length (m)                       5.200
   Width  (m)                      10.000
   Height (m)                       8.000
   Initial Time Step (s)            0.056

 Grid Dimensions, Mesh     8

   Cells in the X Direction            52
   Cells in the Y Direction           100
   Cells in the Z Direction            80
   Number of Grid Cells            416000


 Physical Dimensions, Mesh     8

   Length (m)                       5.200
   Width  (m)                      10.000
   Height (m)                       8.000
   Initial Time Step (s)            0.056

Total Number of Grid Cells       3271200


 Miscellaneous Parameters

   Simulation Start Time (s)          0.0
   Simulation End Time (s)         4500.0
   LES Calculation
   Eddy Viscosity:           Deardorff Model (C_DEARDORFF = 0.10)
   Near-wall Eddy Viscosity: Smagorinsky with Van Driest damping (C_SMAGORINSKY = 0.20)
   Turbulent Prandtl Number:         0.50
   Turbulent Schmidt Number:         0.50
   Ambient Temperature (C):         20.00


 Mass Fraction Transformation Matrix to Convert Species Mixtures (Columns) to Primitive Species (Rows)

                         AIR       REAC_FUE  PRODUCTS
   REAC_FUEL             0.000000  1.000000  0.000000
   NITROGEN              0.762470  0.000000  0.638868
   OXYGEN                0.230997  0.000000  0.000000
   CARBON DIOXIDE        0.000591  0.000000  0.263417
   CARBON MONOXIDE       0.000000  0.000000  0.000811
   WATER VAPOR           0.005941  0.000000  0.096904
   SOOT                  0.000000  0.000000  0.000000
   HYDROGEN              0.000000  0.000000  0.000000


 Primitive Species Information

   REAC_FUEL
   Gas Species
   Molecular Weight (g/mol)            27.00370
   Ambient Density (kg/m^3)            1.123
   Enthalpy of Formation (J/kg)       -4.63E+06

   NITROGEN
   Gas Species
   Molecular Weight (g/mol)            28.01340
   Ambient Density (kg/m^3)            1.165
   Enthalpy of Formation (J/kg)        0.00E+00

   OXYGEN
   Gas Species
   Molecular Weight (g/mol)            31.99880
   Ambient Density (kg/m^3)            1.330
   Enthalpy of Formation (J/kg)        0.00E+00

   CARBON DIOXIDE
   Gas Species
   Molecular Weight (g/mol)            44.00950
   Ambient Density (kg/m^3)            1.830
   Enthalpy of Formation (J/kg)       -8.94E+06

   CARBON MONOXIDE
   Gas Species
   Molecular Weight (g/mol)            28.01010
   Ambient Density (kg/m^3)            1.164
   Enthalpy of Formation (J/kg)       -3.95E+06

   WATER VAPOR
   Gas Species
   Molecular Weight (g/mol)            18.01528
   Ambient Density (kg/m^3)            0.749
   Enthalpy of Formation (J/kg)       -1.34E+07

   SOOT
   Gas Species
   Molecular Weight (g/mol)            10.91042
   Ambient Density (kg/m^3)            0.454
   Enthalpy of Formation (J/kg)        0.00E+00

   HYDROGEN
   Gas Species
   Molecular Weight (g/mol)             2.01588
   Ambient Density (kg/m^3)            0.084
   Enthalpy of Formation (J/kg)        0.00E+00


 Tracked (Lumped) Species Information

   AIR
   Molecular Weight (g/mol)            28.75199
   Ambient Density (kg/m^3)            1.195
   Initial Mass Fraction               1.000
   Enthalpy of Formation (J/kg)     -8.50E+04

   Sub Species                    Mass Fraction     Mole Fraction
   NITROGEN                       7.624701E-01      7.825730E-01
   OXYGEN                         2.309974E-01      2.075589E-01
   CARBON DIOXIDE                 5.914651E-04      3.864120E-04
   WATER VAPOR                    5.940984E-03      9.481679E-03
 
     Viscosity (kg/m/s) Ambient,  293 K:  1.80E-05
                                  500 K:  2.61E-05
                                 1000 K:  4.13E-05
                                 1500 K:  5.37E-05
   Therm. Cond. (W/m/K) Ambient,  293 K:  2.56E-02
                                  500 K:  3.81E-02
                                 1000 K:  6.69E-02
                                 1500 K:  9.25E-02
        Enthalpy (J/kg) Ambient,  293 K: -9.01E+04
                                  500 K:  1.22E+05
                                 1000 K:  6.72E+05
                                 1500 K:  1.27E+06
    Spec. Heat (J/kg/K) Ambient,  293 K:  1.02E+03
                                  500 K:  1.04E+03
                                 1000 K:  1.16E+03
                                 1500 K:  1.23E+03
   Diff. Coeff. (m^2/s) Ambient,  293 K:  1.99E-05
                                  500 K:  4.96E-05
                                 1000 K:  1.58E-04
                                 1500 K:  3.09E-04

   REAC_FUEL
   Molecular Weight (g/mol)            27.00370
   Ambient Density (kg/m^3)            1.123
   Initial Mass Fraction               0.000
   Enthalpy of Formation (J/kg)     -4.63E+06

   Sub Species                    Mass Fraction     Mole Fraction
   REAC_FUEL                      1.000000E+00      1.000000E+00
 
     Viscosity (kg/m/s) Ambient,  293 K:  1.71E-05
                                  500 K:  2.47E-05
                                 1000 K:  3.88E-05
                                 1500 K:  5.04E-05
   Therm. Cond. (W/m/K) Ambient,  293 K:  2.59E-02
                                  500 K:  3.74E-02
                                 1000 K:  5.88E-02
                                 1500 K:  7.65E-02
        Enthalpy (J/kg) Ambient,  293 K: -4.64E+06
                                  500 K: -4.42E+06
                                 1000 K: -3.88E+06
                                 1500 K: -3.34E+06
    Spec. Heat (J/kg/K) Ambient,  293 K:  1.08E+03
                                  500 K:  1.08E+03
                                 1000 K:  1.08E+03
                                 1500 K:  1.08E+03
   Diff. Coeff. (m^2/s) Ambient,  293 K:  2.00E-05
                                  500 K:  4.98E-05
                                 1000 K:  1.58E-04
                                 1500 K:  3.10E-04

   PRODUCTS
   Molecular Weight (g/mol)            29.24045
   Ambient Density (kg/m^3)            1.216
   Initial Mass Fraction               0.000
   Enthalpy of Formation (J/kg)     -3.66E+06

   Sub Species                    Mass Fraction     Mole Fraction
   NITROGEN                       6.388684E-01      6.668524E-01
   CARBON DIOXIDE                 2.634172E-01      1.750176E-01
   CARBON MONOXIDE                8.105347E-04      8.461377E-04
   WATER VAPOR                    9.690389E-02      1.572839E-01
   SOOT                           0.000000E+00      0.000000E+00
 
     Viscosity (kg/m/s) Ambient,  293 K:  1.60E-05
                                  500 K:  2.38E-05
                                 1000 K:  3.90E-05
                                 1500 K:  5.15E-05
   Therm. Cond. (W/m/K) Ambient,  293 K:  2.28E-02
                                  500 K:  3.58E-02
                                 1000 K:  6.69E-02
                                 1500 K:  9.60E-02
        Enthalpy (J/kg) Ambient,  293 K: -3.66E+06
                                  500 K: -3.44E+06
                                 1000 K: -2.83E+06
                                 1500 K: -2.15E+06
    Spec. Heat (J/kg/K) Ambient,  293 K:  1.07E+03
                                  500 K:  1.13E+03
                                 1000 K:  1.29E+03
                                 1500 K:  1.40E+03
   Diff. Coeff. (m^2/s) Ambient,  293 K:  1.92E-05
                                  500 K:  4.88E-05
                                 1000 K:  1.58E-04
                                 1500 K:  3.10E-04


 Gas Phase Reaction Information

   SFPE Handbook, 3rd Ed

   Reaction ID:  WOOD_PINE

   Fuel                                           Heat of Combustion (kJ/kg)
   REAC_FUEL                                                      17500.0000

   Stoichiometry

   Primitive Species Stoich. Coeff.
   Species ID                                                          Molar
   REAC_FUEL                                                       -1.000000
   OXYGEN                                                          -1.007590
   CARBON DIOXIDE                                                   0.995180
   CARBON MONOXIDE                                                  0.004820
   WATER VAPOR                                                      0.850000

   Tracked (Lumped) Species Stoich. Coeff.
   Species ID                                             Molar         Mass
   AIR                                                -4.854477    -5.168768
   REAC_FUEL                                          -1.000000    -1.000000
   PRODUCTS                                            5.696887     6.168768

   Reaction Kinetics

   Arrhenius Parameters
   Pre-exponential:    Infinite
   Activation Energy:  N/A

   ODE Solver:  EXPLICIT EULER
   Extinction Model:  EXTINCTION 2
   Auto-Ignition Temperature (K):       0.0
   Critical Flame Temperature (K):   1700.2


 Material Information

   1 CONCRETE                                                    
     NBSIR 88-3752 - ATF NIST Multi-Floor Validation
     Emissivity                      0.400
     Density (kg/m3)                2500.0
     Specific Heat (kJ/kg/K)      8.00E-01
     Conductivity (W/m/K)          8.00E-01

   2 YELLOW PINE                                                 
     Quintiere, Fire Behavior - NIST NRC Validation
     Emissivity                      0.900
     Density (kg/m3)                 640.0
     Specific Heat (kJ/kg/K)      2.85E+00
     Conductivity (W/m/K)          1.40E-01

   3 Glass                                                       
     Emissivity                      0.900
     Density (kg/m3)                 500.0
     Specific Heat (kJ/kg/K)      1.00E+00
     Conductivity (W/m/K)          1.00E-01


 Surface Conditions

   0 INERT (DEFAULT)

   1 Concrete
     Material List
          1  CONCRETE
     Layer  1
        Thickness   (m):  0.20000
        Density (kg/m3):  2500.00
        CONCRETE, Mass fraction:    1.00
     Total surface density   500.000 kg/m2
     Solid Phase Node, Layer, Coordinates(m):
                    0      1       0.0000000
                    1      1       0.0005236
                    2      1       0.0015707
                    3      1       0.0036649
                    4      1       0.0078534
                    5      1       0.0162304
                    6      1       0.0329843
                    7      1       0.0664921
                    8      1       0.1335079
                    9      1       0.1670157
                   10      1       0.1837696
                   11      1       0.1921466
                   12      1       0.1963351
                   13      1       0.1984293
                   14      1       0.1994764
                   15      1       0.2000000
     Backing to void

   2 CLT
     Material List
          1  YELLOW PINE
     Layer  1
        Thickness   (m):  0.20000
        Density (kg/m3):   640.00
        YELLOW PINE, Mass fraction:    1.00
     Total surface density   128.000 kg/m2
     Solid Phase Node, Layer, Coordinates(m):
                    0      1       0.0000000
                    1      1       0.0002611
                    2      1       0.0007833
                    3      1       0.0018277
                    4      1       0.0039164
                    5      1       0.0080940
                    6      1       0.0164491
                    7      1       0.0331593
                    8      1       0.0665796
                    9      1       0.1334204
                   10      1       0.1668407
                   11      1       0.1835509
                   12      1       0.1919060
                   13      1       0.1960836
                   14      1       0.1981723
                   15      1       0.1992167
                   16      1       0.1997389
                   17      1       0.2000000
     Backing to void

   3 Glass
     Material List
          1  Glass
     Layer  1
        Thickness   (m):  0.20000
        Density (kg/m3):   500.00
        Glass, Mass fraction:    1.00
     Total surface density   100.000 kg/m2
     Solid Phase Node, Layer, Coordinates(m):
                    0      1       0.0000000
                    1      1       0.0003922
                    2      1       0.0011765
                    3      1       0.0027451
                    4      1       0.0058824
                    5      1       0.0121569
                    6      1       0.0247059
                    7      1       0.0498039
                    8      1       0.1000000
                    9      1       0.1501961
                   10      1       0.1752941
                   11      1       0.1878431
                   12      1       0.1941176
                   13      1       0.1972549
                   14      1       0.1988235
                   15      1       0.1996078
                   16      1       0.2000000
     Backing to void

   4 Burner_floor
     Wall or Vent Temperature (C)   300.0
     REAC_FUEL Mass Flux (kg/s/m2)   4.30E-02

   5 OPEN
     Passive Vent to Atmosphere

   6 MIRROR
     Symmetry Plane

   7 INTERPOLATED

   8 PERIODIC

   9 HVAC

  10 MASSLESS TRACER

  11 DROPLET

  12 EVACUATION_OUTFLOW
     Normal Velocity (m/s)         0.000

  13 MASSLESS TARGET

  14 PERIODIC FLOW ONLY


 Device Coordinates

     1 Coords:      0.100000      9.999000      4.100000, Make: null, ID: temp_0.1, Quantity: THERMOCOUPLE
     2 Coords:      0.100000      9.999000      4.300000, Make: null, ID: temp_0.3, Quantity: THERMOCOUPLE
     3 Coords:      0.100000      9.999000      4.500000, Make: null, ID: temp_0.5, Quantity: THERMOCOUPLE
     4 Coords:      0.100000      9.999000      4.700000, Make: null, ID: temp_0.7, Quantity: THERMOCOUPLE
     5 Coords:      0.100000      9.999000      4.900000, Make: null, ID: temp_0.9, Quantity: THERMOCOUPLE
     6 Coords:      0.100000      9.999000      5.100000, Make: null, ID: temp_1.1, Quantity: THERMOCOUPLE
     7 Coords:      0.100000      9.999000      5.300000, Make: null, ID: temp_1.3, Quantity: THERMOCOUPLE
     8 Coords:      0.100000      9.999000      5.500000, Make: null, ID: temp_1.5, Quantity: THERMOCOUPLE
     9 Coords:      0.100000      9.999000      4.100000, Make: null, ID: rad_0.1, Quantity: RADIATIVE HEAT FLUX
    10 Coords:      0.100000      9.999000      4.300000, Make: null, ID: rad_0.3, Quantity: RADIATIVE HEAT FLUX
    11 Coords:      0.100000      9.999000      4.500000, Make: null, ID: rad_0.5, Quantity: RADIATIVE HEAT FLUX
    12 Coords:      0.100000      9.999000      4.700000, Make: null, ID: rad_0.7, Quantity: RADIATIVE HEAT FLUX
    13 Coords:      0.100000      9.999000      4.900000, Make: null, ID: rad_0.9, Quantity: RADIATIVE HEAT FLUX
    14 Coords:      0.100000      9.999000      5.100000, Make: null, ID: rad_1.1, Quantity: RADIATIVE HEAT FLUX
    15 Coords:      0.100000      9.999000      5.300000, Make: null, ID: rad_1.3, Quantity: RADIATIVE HEAT FLUX
    16 Coords:      0.100000      9.999000      5.500000, Make: null, ID: rad_1.5, Quantity: RADIATIVE HEAT FLUX
    17 Coords:      0.100000     19.999000      4.100000, Make: null, ID: temp_0.01, Quantity: THERMOCOUPLE
    18 Coords:      0.100000     19.999000      4.300000, Make: null, ID: temp_0.02, Quantity: THERMOCOUPLE
    19 Coords:      0.100000     19.999000      4.500000, Make: null, ID: temp_0.03, Quantity: THERMOCOUPLE
    20 Coords:      0.100000     19.999000      4.700000, Make: null, ID: temp_0.04, Quantity: THERMOCOUPLE
    21 Coords:      0.100000     19.999000      4.900000, Make: null, ID: temp_0.05, Quantity: THERMOCOUPLE
    22 Coords:      0.100000     19.999000      5.100000, Make: null, ID: temp_1.01, Quantity: THERMOCOUPLE
    23 Coords:      0.100000     19.999000      5.300000, Make: null, ID: temp_1.02, Quantity: THERMOCOUPLE
    24 Coords:      0.100000     19.999000      5.500000, Make: null, ID: temp_1.03, Quantity: THERMOCOUPLE
    25 Coords:      0.100000     19.999000      4.100000, Make: null, ID: rad_0.01, Quantity: RADIATIVE HEAT FLUX
    26 Coords:      0.100000     19.999000      4.300000, Make: null, ID: rad_0.02, Quantity: RADIATIVE HEAT FLUX
    27 Coords:      0.100000     19.999000      4.500000, Make: null, ID: rad_0.03, Quantity: RADIATIVE HEAT FLUX
    28 Coords:      0.100000     19.999000      4.700000, Make: null, ID: rad_0.04, Quantity: RADIATIVE HEAT FLUX
    29 Coords:      0.100000     19.999000      4.900000, Make: null, ID: rad_0.05, Quantity: RADIATIVE HEAT FLUX
    30 Coords:      0.100000     19.999000      5.100000, Make: null, ID: rad_1.01, Quantity: RADIATIVE HEAT FLUX
    31 Coords:      0.100000     19.999000      5.300000, Make: null, ID: rad_1.02, Quantity: RADIATIVE HEAT FLUX
    32 Coords:      0.100000     19.999000      5.500000, Make: null, ID: rad_1.03, Quantity: RADIATIVE HEAT FLUX
    33 Coords:      0.100000     29.999000      4.100000, Make: null, ID: temp_0.06, Quantity: THERMOCOUPLE
    34 Coords:      0.100000     29.999000      4.300000, Make: null, ID: temp_0.07, Quantity: THERMOCOUPLE
    35 Coords:      0.100000     29.999000      4.500000, Make: null, ID: temp_0.08, Quantity: THERMOCOUPLE
    36 Coords:      0.100000     29.999000      4.700000, Make: null, ID: temp_0.09, Quantity: THERMOCOUPLE
    37 Coords:      0.100000     29.999000      4.900000, Make: null, ID: temp_0.10, Quantity: THERMOCOUPLE
    38 Coords:      0.100000     29.999000      5.100000, Make: null, ID: temp_1.04, Quantity: THERMOCOUPLE
    39 Coords:      0.100000     29.999000      5.300000, Make: null, ID: temp_1.05, Quantity: THERMOCOUPLE
    40 Coords:      0.100000     29.999000      5.500000, Make: null, ID: temp_1.06, Quantity: THERMOCOUPLE
    41 Coords:      0.100000     29.999000      4.100000, Make: null, ID: rad_0.06, Quantity: RADIATIVE HEAT FLUX
    42 Coords:      0.100000     29.999000      4.300000, Make: null, ID: rad_0.07, Quantity: RADIATIVE HEAT FLUX
    43 Coords:      0.100000     29.999000      4.500000, Make: null, ID: rad_0.08, Quantity: RADIATIVE HEAT FLUX
    44 Coords:      0.100000     29.999000      4.700000, Make: null, ID: rad_0.09, Quantity: RADIATIVE HEAT FLUX
    45 Coords:      0.100000     29.999000      4.900000, Make: null, ID: rad_0.10, Quantity: RADIATIVE HEAT FLUX
    46 Coords:      0.100000     29.999000      5.100000, Make: null, ID: rad_1.04, Quantity: RADIATIVE HEAT FLUX
    47 Coords:      0.100000     29.999000      5.300000, Make: null, ID: rad_1.05, Quantity: RADIATIVE HEAT FLUX
    48 Coords:      0.100000     29.999000      5.500000, Make: null, ID: rad_1.06, Quantity: RADIATIVE HEAT FLUX
    49 Coords:      0.400000      4.000000      2.000000, Make: null, ID: Glass1, Quantity: THERMOCOUPLE
    50 Coords:      0.400000     12.000000      2.000000, Make: null, ID: Glass2, Quantity: THERMOCOUPLE
    51 Coords:      0.400000     19.999000      2.000000, Make: null, ID: Glass3, Quantity: THERMOCOUPLE
    52 Coords:      0.400000     28.000000      2.000000, Make: null, ID: Glass4, Quantity: THERMOCOUPLE
    53 Coords:      0.400000     36.000000      2.000000, Make: null, ID: Glass5, Quantity: THERMOCOUPLE


 Slice File Information, Mesh     1

   Sampling Interval (s)             4.500

   1 Nodes:   0  98   0   0   0  41, Quantity: TEMPERATURE
   2 Nodes:   0  98 100 100   0  41, Quantity: TEMPERATURE


 Radiation Model Information

   Number of control angles  104
   Time step increment         3
   Angle increment             5
   Theta band N_phi   Solid angle
     1:        4     0.120
     2:       12     0.114
     3:       16     0.127
     4:       20     0.120
     5:       20     0.120
     6:       16     0.127
     7:       12     0.114
     8:        4     0.120
   Using gray gas absorption.
   Mean beam length  0.100 m
 
 

 Run Time Diagnostics

       Time Step       1   October 28, 2020  11:12:33
       Step Size:    0.556E-01 s, Total Time:       0.06 s
       Pressure Iterations:      1
       Maximum Velocity Error:  0.43E-02 on Mesh   5 at (  51 101  65)
       Maximum Pressure Error:  0.82E-05 on Mesh   7 at (  15  84  80)
       ---------------------------------------------------------------
       Mesh    1
       Max CFL number:  0.11E-01 at (  50,  99,   2)
       Max divergence:  0.14E-05 at (  60,  23,  35)
       Min divergence: -0.14E-05 at (  96,  98,  20)
       Max VN number:   0.91E-02 at (  68,  55,  14)
       Radiation Loss to Boundaries:        -0.004 kW
       Mesh    2
       Max CFL number:  0.11E-01 at (  49,  99,   2)
       Max divergence:  0.13E-05 at (  75,  58,  20)
       Min divergence: -0.14E-05 at (  40,  38,  18)
       Max VN number:   0.86E-02 at (  75,  58,  20)
       Radiation Loss to Boundaries:        -0.007 kW
       Mesh    3
       Max CFL number:  0.11E-01 at (  49,  61,  14)
       Max divergence:  0.13E-05 at (  84,  74,   5)
       Min divergence: -0.14E-05 at (  87,   3,  12)
       Max VN number:   0.87E-02 at (  63,  43,  17)
       Radiation Loss to Boundaries:        -0.007 kW
       Mesh    4
       Max CFL number:  0.11E-01 at (  92,  42,  35)
       Max divergence:  0.13E-05 at (  72,  70,  26)
       Min divergence: -0.14E-05 at (  55,   4,  20)
       Max VN number:   0.89E-02 at (  24,  66,  19)
       Radiation Loss to Boundaries:        -0.004 kW
       Mesh    5
       Max CFL number:  0.11E-01 at (  49,  48,  33)
       Max divergence:  0.13E-05 at (  25,  94,  68)
       Min divergence: -0.13E-05 at (  48,  74,  48)
       Max VN number:   0.88E-02 at (  15,   7,  24)
       No. of Lagrangian Particles:             8
       Radiation Loss to Boundaries:        -0.002 kW
       Mesh    6
       Max CFL number:  0.11E-01 at (  26,  57,  14)
       Max divergence:  0.13E-05 at (  35,  48,  72)
       Min divergence: -0.14E-05 at (  51,  87,   8)
       Max VN number:   0.87E-02 at (  12,  90,  73)
       No. of Lagrangian Particles:             8
       Radiation Loss to Boundaries:        -0.001 kW
       Mesh    7
       Max CFL number:  0.11E-01 at (   4,  73,  79)
       Max divergence:  0.13E-05 at (  33,  67,  72)
       Min divergence: -0.13E-05 at (  43,  42,  40)
       Max VN number:   0.89E-02 at (  28,  95,  37)
       No. of Lagrangian Particles:             8
       Radiation Loss to Boundaries:        -0.001 kW
       Mesh    8
       Max CFL number:  0.11E-01 at (  49,  87,  77)
       Max divergence:  0.14E-05 at (  45,  86,  32)
       Min divergence: -0.14E-05 at (  45,  38,  57)
       Max VN number:   0.90E-02 at (  47,  94,  49)
       Radiation Loss to Boundaries:        -0.002 kW
 
       Time Step       2   October 28, 2020  11:12:36
       Step Size:    0.556E-01 s, Total Time:       0.11 s
       Pressure Iterations:      1
       Maximum Velocity Error:  0.18E-02 on Mesh   2 at (  16 101  36)
       Maximum Pressure Error:  0.11E-03 on Mesh   3 at (   3  34  36)
       ---------------------------------------------------------------
       Mesh    1
       Max CFL number:  0.11E-01 at (  50,  99,   3)
       Max divergence:  0.14E-05 at (  60,  23,  35)
       Min divergence: -0.14E-05 at (  96,  98,  20)
       Max VN number:   0.91E-02 at (  68,  55,  14)
       Radiation Loss to Boundaries:        -0.004 kW
       Mesh    2
       Max CFL number:  0.11E-01 at (  49,  99,   3)
       Max divergence:  0.13E-05 at (  75,  58,  20)
       Min divergence: -0.14E-05 at (  40,  38,  18)
       Max VN number:   0.86E-02 at (  75,  58,  20)
       Radiation Loss to Boundaries:        -0.007 kW
       Mesh    3
       Max CFL number:  0.11E-01 at (  97,  98,  22)
       Max divergence:  0.13E-05 at (  84,  74,   5)
       Min divergence: -0.14E-05 at (  87,   3,  12)
       Max VN number:   0.87E-02 at (  63,  43,  17)
       Radiation Loss to Boundaries:        -0.007 kW
       Mesh    4
       Max CFL number:  0.11E-01 at (  92,  42,  35)
       Max divergence:  0.13E-05 at (  72,  70,  26)
       Min divergence: -0.14E-05 at (  55,   4,  20)
       Max VN number:   0.89E-02 at (  24,  66,  19)
       Radiation Loss to Boundaries:        -0.004 kW
       Mesh    5
       Max CFL number:  0.11E-01 at (  49,  48,  33)
       Max divergence:  0.13E-05 at (  25,  94,  68)
       Min divergence: -0.13E-05 at (  48,  74,  48)
       Max VN number:   0.88E-02 at (  15,   7,  24)
       No. of Lagrangian Particles:             8
       Radiation Loss to Boundaries:        -0.002 kW
       Mesh    6
       Max CFL number:  0.11E-01 at (  26,  57,  14)
       Max divergence:  0.13E-05 at (  35,  48,  72)
       Min divergence: -0.14E-05 at (  51,  87,   8)
       Max VN number:   0.87E-02 at (  12,  90,  73)
       No. of Lagrangian Particles:             8
       Radiation Loss to Boundaries:        -0.001 kW
       Mesh    7
       Max CFL number:  0.11E-01 at (   5,  73,  79)
       Max divergence:  0.13E-05 at (  33,  67,  72)
       Min divergence: -0.13E-05 at (  49,  35,  58)
       Max VN number:   0.89E-02 at (  28,  95,  37)
       No. of Lagrangian Particles:             8
       Radiation Loss to Boundaries:        -0.001 kW
       Mesh    8
       Max CFL number:  0.11E-01 at (  49,  87,  77)
       Max divergence:  0.14E-05 at (  45,  86,  32)
       Min divergence: -0.14E-05 at (  45,  38,  57)
       Max VN number:   0.90E-02 at (  47,  94,  49)
       Radiation Loss to Boundaries:        -0.002 kW
 
       Time Step       3   October 28, 2020  11:12:39
       Step Size:    0.556E-01 s, Total Time:       0.17 s
       Pressure Iterations:      1
       Maximum Velocity Error:  0.21E-02 on Mesh   6 at (  51   0  65)
       Maximum Pressure Error:  0.10E-03 on Mesh   3 at (   3  34  36)
       ---------------------------------------------------------------
       Mesh    1
       Max CFL number:  0.11E-01 at (  50,  99,   3)
       Max divergence:  0.14E-05 at (  60,  23,  35)
       Min divergence: -0.14E-05 at (  96,  98,  20)
       Max VN number:   0.91E-02 at (  68,  55,  14)
       Radiation Loss to Boundaries:        -0.004 kW
       Mesh    2
       Max CFL number:  0.11E-01 at (  49,  99,   3)
       Max divergence:  0.13E-05 at (  75,  58,  20)
       Min divergence: -0.14E-05 at (  40,  38,  18)
       Max VN number:   0.85E-02 at (  85,  84,  16)
       Radiation Loss to Boundaries:        -0.007 kW
       Mesh    3
       Max CFL number:  0.11E-01 at (  97,  98,  22)
       Max divergence:  0.13E-05 at (  84,  74,   5)
       Min divergence: -0.14E-05 at (  87,   3,  12)
       Max VN number:   0.87E-02 at (  63,  43,  17)
       Radiation Loss to Boundaries:        -0.007 kW
       Mesh    4
       Max CFL number:  0.11E-01 at (  92,  42,  35)
       Max divergence:  0.13E-05 at (  72,  70,  26)
       Min divergence: -0.14E-05 at (  55,   4,  20)
       Max VN number:   0.89E-02 at (  24,  66,  19)
       Radiation Loss to Boundaries:        -0.004 kW
       Mesh    5
       Max CFL number:  0.11E-01 at (  49,  48,  33)
       Max divergence:  0.13E-05 at (  25,  94,  68)
       Min divergence: -0.13E-05 at (  48,  74,  48)
       Max VN number:   0.87E-02 at (  15,   7,  24)
       No. of Lagrangian Particles:             8
       Radiation Loss to Boundaries:        -0.002 kW
       Mesh    6
       Max CFL number:  0.11E-01 at (  26,  57,  14)
       Max divergence:  0.13E-05 at (  35,  48,  72)
       Min divergence: -0.14E-05 at (  51,  87,   8)
       Max VN number:   0.87E-02 at (  12,  90,  73)
       No. of Lagrangian Particles:             8
       Radiation Loss to Boundaries:        -0.001 kW
       Mesh    7
       Max CFL number:  0.11E-01 at (   5,  73,  79)
       Max divergence:  0.13E-05 at (  33,  67,  72)
       Min divergence: -0.13E-05 at (  49,  35,  58)
       Max VN number:   0.89E-02 at (  28,  95,  37)
       No. of Lagrangian Particles:             8
       Radiation Loss to Boundaries:        -0.001 kW
       Mesh    8
       Max CFL number:  0.11E-01 at (  49,  87,  77)
       Max divergence:  0.14E-05 at (  45,  86,  32)
       Min divergence: -0.14E-05 at (  45,  38,  57)
       Max VN number:   0.89E-02 at (  47,  94,  49)
       Radiation Loss to Boundaries:        -0.002 kW
 
       Time Step       4   October 28, 2020  11:12:45
       Step Size:    0.556E-01 s, Total Time:       0.22 s
       Pressure Iterations:      1
       Maximum Velocity Error:  0.13E-02 on Mesh   1 at (  52 101   2)
       Maximum Pressure Error:  0.83E-04 on Mesh   3 at (   3  17  36)
       ---------------------------------------------------------------
       Mesh    1
       Max CFL number:  0.11E-01 at (  50,  99,   3)
       Max divergence:  0.14E-05 at (  60,  23,  35)
       Min divergence: -0.14E-05 at (  83,  79,  12)
       Max VN number:   0.90E-02 at (  68,  55,  14)
       Radiation Loss to Boundaries:        -0.003 kW
       Mesh    2
       Max CFL number:  0.11E-01 at (  49,  99,   3)
       Max divergence:  0.13E-05 at (  75,  58,  20)
       Min divergence: -0.14E-05 at (  40,  38,  18)
       Max VN number:   0.85E-02 at (  85,  84,  16)
       Radiation Loss to Boundaries:        -0.004 kW
       Mesh    3
       Max CFL number:  0.11E-01 at (  97,  98,  22)
       Max divergence:  0.13E-05 at (  84,  74,   5)
       Min divergence: -0.14E-05 at (  63,  43,  17)
       Max VN number:   0.87E-02 at (  63,  43,  17)
       Radiation Loss to Boundaries:        -0.004 kW
       Mesh    4
       Max CFL number:  0.11E-01 at (  92,  42,  35)
       Max divergence:  0.13E-05 at (  72,  70,  26)
       Min divergence: -0.13E-05 at (  14,  36,  12)
       Max VN number:   0.88E-02 at (  24,  66,  19)
       Radiation Loss to Boundaries:        -0.002 kW
       Mesh    5
       Max CFL number:  0.11E-01 at (  49,  48,  33)
       Max divergence:  0.13E-05 at (  25,  94,  68)
       Min divergence: -0.13E-05 at (  48,  74,  48)
       Max VN number:   0.87E-02 at (  15,   7,  24)
       No. of Lagrangian Particles:             8
       Radiation Loss to Boundaries:        -0.001 kW
       Mesh    6
       Max CFL number:  0.11E-01 at (  26,  57,  14)
       Max divergence:  0.13E-05 at (  35,  48,  72)
       Min divergence: -0.14E-05 at (  51,  87,   8)
       Max VN number:   0.86E-02 at (  12,  90,  73)
       No. of Lagrangian Particles:             8
       Mesh    7
       Max CFL number:  0.11E-01 at (  16,  31,  50)
       Max divergence:  0.13E-05 at (  33,  67,  72)
       Min divergence: -0.13E-05 at (  49,  35,  58)
       Max VN number:   0.89E-02 at (  28,  95,  37)
       No. of Lagrangian Particles:             8
       Mesh    8
       Max CFL number:  0.11E-01 at (  49,  87,  77)
       Max divergence:  0.14E-05 at (  45,  86,  32)
       Min divergence: -0.14E-05 at (  45,  38,  57)
       Max VN number:   0.89E-02 at (  47,  94,  49)
       Radiation Loss to Boundaries:        -0.001 kW
 
       Time Step       5   October 28, 2020  11:12:48
       Step Size:    0.556E-01 s, Total Time:       0.28 s
       Pressure Iterations:      1
       Maximum Velocity Error:  0.89E-03 on Mesh   8 at (  53  48  25)
       Maximum Pressure Error:  0.61E-04 on Mesh   3 at (   3  17  36)
       ---------------------------------------------------------------
       Mesh    1
       Max CFL number:  0.11E-01 at (  50,  99,   3)
       Max divergence:  0.14E-05 at (  60,  23,  35)
       Min divergence: -0.14E-05 at (  83,  79,  12)
       Max VN number:   0.90E-02 at (  68,  55,  14)
       Radiation Loss to Boundaries:        -0.003 kW
       Mesh    2
       Max CFL number:  0.11E-01 at (  49,  99,   3)
       Max divergence:  0.13E-05 at (  75,  58,  20)
       Min divergence: -0.14E-05 at (  40,  38,  18)
       Max VN number:   0.85E-02 at (  85,  84,  16)
       Radiation Loss to Boundaries:        -0.004 kW
       Mesh    3
       Max CFL number:  0.11E-01 at (  97,  98,  22)
       Max divergence:  0.13E-05 at (  84,  74,   5)
       Min divergence: -0.14E-05 at (  63,  43,  17)
       Max VN number:   0.87E-02 at (  63,  43,  17)
       Radiation Loss to Boundaries:        -0.004 kW
       Mesh    4
       Max CFL number:  0.11E-01 at (  92,  42,  35)
       Max divergence:  0.13E-05 at (  72,  70,  26)
       Min divergence: -0.14E-05 at (  14,  36,  12)
       Max VN number:   0.88E-02 at (  24,  66,  19)
       Radiation Loss to Boundaries:        -0.002 kW
       Mesh    5
       Max CFL number:  0.11E-01 at (   8,  30,  55)
       Max divergence:  0.13E-05 at (  25,  94,  68)
       Min divergence: -0.13E-05 at (  48,  74,  48)
       Max VN number:   0.87E-02 at (  15,   7,  24)
       No. of Lagrangian Particles:             8
       Radiation Loss to Boundaries:        -0.001 kW
       Mesh    6
       Max CFL number:  0.11E-01 at (  26,  57,  14)
       Max divergence:  0.13E-05 at (  35,  48,  72)
       Min divergence: -0.14E-05 at (  51,  87,   8)
       Max VN number:   0.86E-02 at (  12,  90,  73)
       No. of Lagrangian Particles:             8
       Mesh    7
       Max CFL number:  0.11E-01 at (  16,  31,  50)
       Max divergence:  0.13E-05 at (  33,  67,  72)
       Min divergence: -0.13E-05 at (  49,  35,  58)
       Max VN number:   0.88E-02 at (  28,  95,  37)
       No. of Lagrangian Particles:             8
       Mesh    8
       Max CFL number:  0.11E-01 at (  49,  87,  77)
       Max divergence:  0.14E-05 at (  45,  86,  32)
       Min divergence: -0.14E-05 at (  45,  38,  57)
       Max VN number:   0.89E-02 at (  47,  94,  49)
       Radiation Loss to Boundaries:        -0.001 kW
 
       Time Step       6   October 28, 2020  11:12:52
       Step Size:    0.556E-01 s, Total Time:       0.33 s
       Pressure Iterations:      1
       Maximum Velocity Error:  0.68E-03 on Mesh   3 at (  97 101   3)
       Maximum Pressure Error:  0.46E-04 on Mesh   6 at (  51  35  40)
       ---------------------------------------------------------------
       Mesh    1
       Max CFL number:  0.11E-01 at (  50,  99,   3)
       Max divergence:  0.14E-05 at (  60,  23,  35)
       Min divergence: -0.14E-05 at (  83,  79,  12)
       Max VN number:   0.90E-02 at (  68,  55,  14)
       Radiation Loss to Boundaries:        -0.003 kW
       Mesh    2
       Max CFL number:  0.11E-01 at (  49,  99,   3)
       Max divergence:  0.13E-05 at (  75,  58,  20)
       Min divergence: -0.14E-05 at (  40,  38,  18)
       Max VN number:   0.85E-02 at (  85,  84,  16)
       Radiation Loss to Boundaries:        -0.004 kW
       Mesh    3
       Max CFL number:  0.11E-01 at (  97,  98,  22)
       Max divergence:  0.13E-05 at (  84,  74,   5)
       Min divergence: -0.14E-05 at (  63,  43,  17)
       Max VN number:   0.87E-02 at (  63,  43,  17)
       Radiation Loss to Boundaries:        -0.004 kW
       Mesh    4
       Max CFL number:  0.11E-01 at (  92,  42,  35)
       Max divergence:  0.13E-05 at (  72,  70,  26)
       Min divergence: -0.14E-05 at (  14,  36,  12)
       Max VN number:   0.88E-02 at (  24,  66,  19)
       Radiation Loss to Boundaries:        -0.002 kW
       Mesh    5
       Max CFL number:  0.11E-01 at (   8,  30,  55)
       Max divergence:  0.13E-05 at (  25,  94,  68)
       Min divergence: -0.13E-05 at (  48,  74,  48)
       Max VN number:   0.87E-02 at (  15,   7,  24)
       No. of Lagrangian Particles:             8
       Radiation Loss to Boundaries:        -0.001 kW
       Mesh    6
       Max CFL number:  0.11E-01 at (  26,  57,  14)
       Max divergence:  0.13E-05 at (  35,  48,  72)
       Min divergence: -0.14E-05 at (  51,  87,   8)
       Max VN number:   0.86E-02 at (  12,  90,  73)
       No. of Lagrangian Particles:             8
       Mesh    7
       Max CFL number:  0.11E-01 at (  16,  31,  50)
       Max divergence:  0.13E-05 at (  33,  67,  72)
       Min divergence: -0.13E-05 at (  49,  35,  58)
       Max VN number:   0.88E-02 at (  28,  95,  37)
       No. of Lagrangian Particles:             8
       Mesh    8
       Max CFL number:  0.11E-01 at (  49,  87,  77)
       Max divergence:  0.14E-05 at (  45,  86,  32)
       Min divergence: -0.14E-05 at (  45,  38,  57)
       Max VN number:   0.88E-02 at (  47,  94,  49)
       Radiation Loss to Boundaries:        -0.001 kW
 
       Time Step       7   October 28, 2020  11:12:57
       Step Size:    0.556E-01 s, Total Time:       0.39 s
       Pressure Iterations:      1
       Maximum Velocity Error:  0.48E-03 on Mesh   2 at (   5   0   2)
       Maximum Pressure Error:  0.44E-04 on Mesh   6 at (  51  35  40)
       ---------------------------------------------------------------
       Mesh    1
       Max CFL number:  0.11E-01 at (  50,  99,   3)
       Max divergence:  0.14E-05 at (  60,  23,  35)
       Min divergence: -0.14E-05 at (  72,  80,  30)
       Max VN number:   0.90E-02 at (  68,  55,  14)
       Radiation Loss to Boundaries:        -0.002 kW
       Mesh    2
       Max CFL number:  0.11E-01 at (  49,  99,   3)
       Max divergence:  0.13E-05 at (  75,  58,  20)
       Min divergence: -0.14E-05 at (  40,  38,  18)
       Max VN number:   0.85E-02 at (  85,  84,  16)
       Radiation Loss to Boundaries:        -0.003 kW
       Mesh    3
       Max CFL number:  0.11E-01 at (  49,  61,  14)
       Max divergence:  0.14E-05 at (  84,  74,   5)
       Min divergence: -0.14E-05 at (  63,  43,  17)
       Max VN number:   0.86E-02 at (  63,  43,  17)
       Radiation Loss to Boundaries:        -0.003 kW
       Mesh    4
       Max CFL number:  0.11E-01 at (  92,  42,  35)
       Max divergence:  0.13E-05 at (  72,  70,  26)
       Min divergence: -0.14E-05 at (  14,  36,  12)
       Max VN number:   0.88E-02 at (  24,  66,  19)
       Radiation Loss to Boundaries:        -0.001 kW
       Mesh    5
       Max CFL number:  0.11E-01 at (   8,  30,  55)
       Max divergence:  0.13E-05 at (  25,  94,  68)
       Min divergence: -0.13E-05 at (  48,  74,  48)
       Max VN number:   0.86E-02 at (   2,  50,  38)
       No. of Lagrangian Particles:             8
       Radiation Loss to Boundaries:        -0.001 kW
       Mesh    6
       Max CFL number:  0.11E-01 at (  26,  57,  14)
       Max divergence:  0.13E-05 at (  35,  48,  72)
       Min divergence: -0.14E-05 at (  51,  87,   8)
       Max VN number:   0.86E-02 at (  12,  90,  73)
       No. of Lagrangian Particles:             8
       Mesh    7
       Max CFL number:  0.11E-01 at (  16,  31,  50)
       Max divergence:  0.13E-05 at (  33,  67,  72)
       Min divergence: -0.13E-05 at (  49,  35,  58)
       Max VN number:   0.88E-02 at (  28,  95,  37)
       No. of Lagrangian Particles:             8
       Mesh    8
       Max CFL number:  0.11E-01 at (  49,  87,  77)
       Max divergence:  0.14E-05 at (  45,  86,  32)
       Min divergence: -0.14E-05 at (  45,  38,  57)
       Max VN number:   0.88E-02 at (  47,  94,  49)
 
       Time Step       8   October 28, 2020  11:13:01
       Step Size:    0.556E-01 s, Total Time:       0.44 s
       Pressure Iterations:      1
       Maximum Velocity Error:  0.42E-03 on Mesh   3 at (  77 101  36)
       Maximum Pressure Error:  0.44E-04 on Mesh   8 at (  51  30  66)
       ---------------------------------------------------------------
       Mesh    1
       Max CFL number:  0.11E-01 at (  50,  99,   3)
       Max divergence:  0.14E-05 at (  60,  23,  35)
       Min divergence: -0.14E-05 at (  72,  80,  30)
       Max VN number:   0.90E-02 at (  68,  55,  14)
       Radiation Loss to Boundaries:        -0.002 kW
       Mesh    2
       Max CFL number:  0.11E-01 at (  49,  99,   3)
       Max divergence:  0.13E-05 at (  75,  58,  20)
       Min divergence: -0.14E-05 at (  40,  38,  18)
       Max VN number:   0.85E-02 at (  85,  84,  16)
       Radiation Loss to Boundaries:        -0.003 kW
       Mesh    3
       Max CFL number:  0.11E-01 at (  49,  61,  14)
       Max divergence:  0.14E-05 at (  84,  74,   5)
       Min divergence: -0.14E-05 at (  63,  43,  17)
       Max VN number:   0.86E-02 at (  63,  43,  17)
       Radiation Loss to Boundaries:        -0.003 kW
       Mesh    4
       Max CFL number:  0.11E-01 at (  92,  42,  35)
       Max divergence:  0.13E-05 at (  72,  70,  26)
       Min divergence: -0.14E-05 at (  14,  36,  12)
       Max VN number:   0.87E-02 at (  24,  66,  19)
       Radiation Loss to Boundaries:        -0.001 kW
       Mesh    5
       Max CFL number:  0.11E-01 at (  49,  48,  33)
       Max divergence:  0.13E-05 at (  25,  94,  68)
       Min divergence: -0.13E-05 at (  48,  74,  48)
       Max VN number:   0.86E-02 at (   2,  50,  38)
       No. of Lagrangian Particles:             8
       Radiation Loss to Boundaries:        -0.001 kW
       Mesh    6
       Max CFL number:  0.11E-01 at (  26,  57,  14)
       Max divergence:  0.13E-05 at (  35,  48,  72)
       Min divergence: -0.14E-05 at (  51,  87,   8)
       Max VN number:   0.86E-02 at (  12,  90,  73)
       No. of Lagrangian Particles:             8
       Mesh    7
       Max CFL number:  0.11E-01 at (  16,  31,  50)
       Max divergence:  0.13E-05 at (  33,  67,  72)
       Min divergence: -0.13E-05 at (  49,  35,  58)
       Max VN number:   0.88E-02 at (  28,  95,  37)
       No. of Lagrangian Particles:             8
       Mesh    8
       Max CFL number:  0.11E-01 at (  49,  87,  77)
       Max divergence:  0.14E-05 at (  45,  86,  32)
       Min divergence: -0.14E-05 at (  45,  38,  57)
       Max VN number:   0.88E-02 at (  47,  94,  49)
 
       Time Step       9   October 28, 2020  11:13:04
       Step Size:    0.556E-01 s, Total Time:       0.50 s
       Pressure Iterations:      1
       Maximum Velocity Error:  0.41E-03 on Mesh   3 at (  76 101  36)
       Maximum Pressure Error:  0.45E-04 on Mesh   5 at (  51  59  40)
       ---------------------------------------------------------------
       Mesh    1
       Max CFL number:  0.11E-01 at (  50,  99,   3)
       Max divergence:  0.14E-05 at (  60,  23,  35)
       Min divergence: -0.14E-05 at (  72,  80,  30)
       Max VN number:   0.90E-02 at (  68,  55,  14)
       Radiation Loss to Boundaries:        -0.002 kW
       Mesh    2
       Max CFL number:  0.11E-01 at (  49,  99,   3)
       Max divergence:  0.13E-05 at (  75,  58,  20)
       Min divergence: -0.14E-05 at (  40,  38,  18)
       Max VN number:   0.84E-02 at (  85,  84,  16)
       Radiation Loss to Boundaries:        -0.003 kW
       Mesh    3
       Max CFL number:  0.11E-01 at (  49,  61,  14)
       Max divergence:  0.14E-05 at (  84,  74,   5)
       Min divergence: -0.14E-05 at (  63,  43,  17)
       Max VN number:   0.86E-02 at (  63,  43,  17)
       Radiation Loss to Boundaries:        -0.003 kW
       Mesh    4
       Max CFL number:  0.11E-01 at (  92,  42,  35)
       Max divergence:  0.13E-05 at (  72,  70,  26)
       Min divergence: -0.14E-05 at (  14,  36,  12)
       Max VN number:   0.87E-02 at (  24,  66,  19)
       Radiation Loss to Boundaries:        -0.001 kW
       Mesh    5
       Max CFL number:  0.11E-01 at (  49,  48,  33)
       Max divergence:  0.13E-05 at (  25,  94,  68)
       Min divergence: -0.13E-05 at (  48,  74,  48)
       Max VN number:   0.86E-02 at (   2,  50,  38)
       No. of Lagrangian Particles:             8
       Radiation Loss to Boundaries:        -0.001 kW
       Mesh    6
       Max CFL number:  0.11E-01 at (  26,  57,  14)
       Max divergence:  0.13E-05 at (  35,  48,  72)
       Min divergence: -0.14E-05 at (  51,  87,   8)
       Max VN number:   0.85E-02 at (  12,  90,  73)
       No. of Lagrangian Particles:             8
       Mesh    7
       Max CFL number:  0.11E-01 at (  16,  31,  50)
       Max divergence:  0.13E-05 at (  33,  67,  72)
       Min divergence: -0.13E-05 at (  49,  35,  58)
       Max VN number:   0.87E-02 at (  28,  95,  37)
       No. of Lagrangian Particles:             8
       Mesh    8
       Max CFL number:  0.11E-01 at (  49,  87,  77)
       Max divergence:  0.14E-05 at (  45,  86,  32)
       Min divergence: -0.14E-05 at (  45,  38,  57)
       Max VN number:   0.87E-02 at (  47,  94,  49)
 
       Time Step      10   October 28, 2020  11:13:09
       Step Size:    0.556E-01 s, Total Time:       0.56 s
       Pressure Iterations:      1
       Maximum Velocity Error:  0.36E-03 on Mesh   3 at (  66 101  36)
       Maximum Pressure Error:  0.44E-04 on Mesh   7 at (  51  15  66)
       ---------------------------------------------------------------
       Mesh    1
       Max CFL number:  0.11E-01 at (  50,  99,   3)
       Max divergence:  0.14E-05 at (  60,  23,  35)
       Min divergence: -0.13E-05 at (  72,  80,  30)
       Max VN number:   0.89E-02 at (  68,  55,  14)
       Radiation Loss to Boundaries:        -0.001 kW
       Mesh    2
       Max CFL number:  0.11E-01 at (  49,  99,   3)
       Max divergence:  0.13E-05 at (  75,  58,  20)
       Min divergence: -0.14E-05 at (  40,  38,  18)
       Max VN number:   0.84E-02 at (  85,  84,  16)
       Radiation Loss to Boundaries:        -0.002 kW
       Mesh    3
       Max CFL number:  0.11E-01 at (  49,  61,  14)
       Max divergence:  0.14E-05 at (  84,  74,   5)
       Min divergence: -0.14E-05 at (  63,  43,  17)
       Max VN number:   0.86E-02 at (  63,  43,  17)
       Radiation Loss to Boundaries:        -0.002 kW
       Mesh    4
       Max CFL number:  0.11E-01 at (  92,  42,  35)
       Max divergence:  0.13E-05 at (  72,  70,  26)
       Min divergence: -0.14E-05 at (  14,  36,  12)
       Max VN number:   0.87E-02 at (  24,  66,  19)
       Mesh    5
       Max CFL number:  0.11E-01 at (  49,  48,  33)
       Max divergence:  0.13E-05 at (  25,  94,  68)
       Min divergence: -0.13E-05 at (  48,  74,  48)
       Max VN number:   0.86E-02 at (   2,  50,  38)
       No. of Lagrangian Particles:             8
       Mesh    6
       Max CFL number:  0.11E-01 at (  26,  57,  14)
       Max divergence:  0.13E-05 at (  35,  48,  72)
       Min divergence: -0.14E-05 at (  51,  87,   8)
       Max VN number:   0.85E-02 at (  12,  90,  73)
       No. of Lagrangian Particles:             8
       Mesh    7
       Max CFL number:  0.11E-01 at (  16,  31,  50)
       Max divergence:  0.13E-05 at (  33,  67,  72)
       Min divergence: -0.13E-05 at (  16,  93,  71)
       Max VN number:   0.87E-02 at (  28,  95,  37)
       No. of Lagrangian Particles:             8
       Mesh    8
       Max CFL number:  0.11E-01 at (  49,  87,  77)
       Max divergence:  0.14E-05 at (  45,  86,  32)
       Min divergence: -0.14E-05 at (  45,  38,  57)
       Max VN number:   0.87E-02 at (  20,  12,  42)
 
       Time Step      20   October 28, 2020  11:13:50
       Step Size:    0.556E-01 s, Total Time:       1.11 s
       Pressure Iterations:      1
       Maximum Velocity Error:  0.16E-03 on Mesh   8 at (  52   0  56)
       Maximum Pressure Error:  0.29E-04 on Mesh   6 at (  51  99  66)
       ---------------------------------------------------------------
       Mesh    1
       Max CFL number:  0.11E-01 at (  50,  99,   3)
       Max divergence:  0.14E-05 at (  60,  23,  35)
       Min divergence: -0.13E-05 at (  72,  80,  30)
       Max VN number:   0.88E-02 at (  68,  55,  14)
       Mesh    2
       Max CFL number:  0.11E-01 at (  49,  99,   3)
       Max divergence:  0.13E-05 at (  75,  58,  20)
       Min divergence: -0.14E-05 at (  40,  38,  18)
       Max VN number:   0.83E-02 at (  85,  84,  16)
       Mesh    3
       Max CFL number:  0.11E-01 at (  49,  61,  14)
       Max divergence:  0.14E-05 at (  84,  74,   5)
       Min divergence: -0.14E-05 at (  63,  43,  17)
       Max VN number:   0.84E-02 at (  63,  43,  17)
       Mesh    4
       Max CFL number:  0.11E-01 at (  92,  42,  35)
       Max divergence:  0.13E-05 at (  72,  70,  26)
       Min divergence: -0.14E-05 at (  14,  36,  12)
       Max VN number:   0.85E-02 at (  63,   5,  12)
       Mesh    5
       Max CFL number:  0.10E-01 at (  49,  48,  33)
       Max divergence:  0.14E-05 at (  25,  94,  68)
       Min divergence: -0.13E-05 at (  51,  66,  23)
       Max VN number:   0.85E-02 at (   2,  50,  38)
       No. of Lagrangian Particles:             8
       Mesh    6
       Max CFL number:  0.10E-01 at (  38,  21,  56)
       Max divergence:  0.13E-05 at (  20,  19,  63)
       Min divergence: -0.14E-05 at (  51,  87,   8)
       Max VN number:   0.84E-02 at (  20,  19,  63)
       No. of Lagrangian Particles:             8
       Mesh    7
       Max CFL number:  0.10E-01 at (  34,   7,  14)
       Max divergence:  0.13E-05 at (  33,  67,  72)
       Min divergence: -0.13E-05 at (  16,  93,  71)
       Max VN number:   0.85E-02 at (  28,  95,  37)
       No. of Lagrangian Particles:             8
       Mesh    8
       Max CFL number:  0.11E-01 at (  49,  87,  77)
       Max divergence:  0.14E-05 at (  51,   3,  20)
       Min divergence: -0.14E-05 at (  45,  38,  57)
       Max VN number:   0.85E-02 at (  20,  12,  42)
 
       Time Step      30   October 28, 2020  11:14:30
       Step Size:    0.556E-01 s, Total Time:       1.67 s
       Pressure Iterations:      1
       Maximum Velocity Error:  0.24E-03 on Mesh   7 at (  52 101   1)
       Maximum Pressure Error:  0.25E-04 on Mesh   7 at (  51  99  66)
       ---------------------------------------------------------------
       Mesh    1
       Max CFL number:  0.11E-01 at (  50,  99,   3)
       Max divergence:  0.14E-05 at (  60,  23,  35)
       Min divergence: -0.13E-05 at (  83,  79,  12)
       Max VN number:   0.86E-02 at (  68,  55,  14)
       Mesh    2
       Max CFL number:  0.11E-01 at (  49,  99,   3)
       Max divergence:  0.13E-05 at (  75,  58,  20)
       Min divergence: -0.14E-05 at (  40,  38,  18)
       Max VN number:   0.81E-02 at (  85,  84,  16)
       Mesh    3
       Max CFL number:  0.10E-01 at (  49,  61,  14)
       Max divergence:  0.14E-05 at (  84,  74,   5)
       Min divergence: -0.14E-05 at (  63,  43,  17)
       Max VN number:   0.82E-02 at (  63,  43,  17)
       Mesh    4
       Max CFL number:  0.11E-01 at (  92,  42,  35)
       Max divergence:  0.13E-05 at (  72,  70,  26)
       Min divergence: -0.14E-05 at (  14,  36,  12)
       Max VN number:   0.84E-02 at (  63,   5,  12)
       Mesh    5
       Max CFL number:  0.10E-01 at (  51,  29,   8)
       Max divergence:  0.14E-05 at (  25,  94,  68)
       Min divergence: -0.14E-05 at (  51,  66,  23)
       Max VN number:   0.84E-02 at (   2,  50,  38)
       No. of Lagrangian Particles:             8
       Mesh    6
       Max CFL number:  0.10E-01 at (  38,  21,  56)
       Max divergence:  0.13E-05 at (  20,  19,  63)
       Min divergence: -0.13E-05 at (  51,  87,   8)
       Max VN number:   0.82E-02 at (  20,  19,  63)
       No. of Lagrangian Particles:             8
       Mesh    7
       Max CFL number:  0.10E-01 at (  28,  95,  37)
       Max divergence:  0.13E-05 at (  24,  52,  43)
       Min divergence: -0.13E-05 at (  16,  93,  71)
       Max VN number:   0.82E-02 at (  28,  95,  37)
       No. of Lagrangian Particles:             8
       Mesh    8
       Max CFL number:  0.11E-01 at (  49,  87,  77)
       Max divergence:  0.14E-05 at (  51,   3,  20)
       Min divergence: -0.14E-05 at (  45,  38,  57)
       Max VN number:   0.84E-02 at (  20,  12,  42)
 
       Time Step      40   October 28, 2020  11:15:12
       Step Size:    0.556E-01 s, Total Time:       2.22 s
       Pressure Iterations:      1
       Maximum Velocity Error:  0.93E-04 on Mesh   2 at (   3 101  36)
       Maximum Pressure Error:  0.22E-04 on Mesh   7 at (  51  98  26)
       ---------------------------------------------------------------
       Mesh    1
       Max CFL number:  0.10E-01 at (  30,  70,   2)
       Max divergence:  0.14E-05 at (  60,  23,  35)
       Min divergence: -0.13E-05 at (  63,  81,  25)
       Max VN number:   0.85E-02 at (  68,  55,  14)
       Mesh    2
       Max CFL number:  0.10E-01 at (   5,  79,  12)
       Max divergence:  0.13E-05 at (  31,  74,   3)
       Min divergence: -0.13E-05 at (  28,   5,  26)
       Max VN number:   0.80E-02 at (  85,  84,  16)
       Mesh    3
       Max CFL number:  0.10E-01 at (  31,  69,  36)
       Max divergence:  0.14E-05 at (  84,  74,   5)
       Min divergence: -0.13E-05 at (  63,  43,  17)
       Max VN number:   0.80E-02 at (  63,  43,  17)
       Mesh    4
       Max CFL number:  0.10E-01 at (  97,  42,  36)
       Max divergence:  0.13E-05 at (  72,  70,  26)
       Min divergence: -0.14E-05 at (  14,  36,  12)
       Max VN number:   0.83E-02 at (  63,   5,  12)
       Mesh    5
       Max CFL number:  0.10E-01 at (  51,  29,   8)
       Max divergence:  0.14E-05 at (  25,  94,  68)
       Min divergence: -0.14E-05 at (  51,  66,  23)
       Max VN number:   0.82E-02 at (   2,  50,  38)
       No. of Lagrangian Particles:             8
       Mesh    6
       Max CFL number:  0.10E-01 at (  38,  21,  56)
       Max divergence:  0.13E-05 at (  20,  19,  63)
       Min divergence: -0.13E-05 at (   7,   7,  61)
       Max VN number:   0.81E-02 at (  51,  40,  19)
       No. of Lagrangian Particles:             8
       Mesh    7
       Max CFL number:  0.10E-01 at (  50,  62,  29)
       Max divergence:  0.13E-05 at (  24,  52,  43)
       Min divergence: -0.13E-05 at (  27,  86,  67)
       Max VN number:   0.80E-02 at (  28,  95,  37)
       No. of Lagrangian Particles:             8
       Mesh    8
       Max CFL number:  0.11E-01 at (  49,  24,  71)
       Max divergence:  0.14E-05 at (  51,   3,  20)
       Min divergence: -0.13E-05 at (  45,  38,  57)
       Max VN number:   0.82E-02 at (  20,  12,  42)
 
       Time Step      50   October 28, 2020  11:15:52
       Step Size:    0.556E-01 s, Total Time:       2.78 s
       Pressure Iterations:      1
       Maximum Velocity Error:  0.19E-03 on Mesh   7 at (  52 101   1)
       Maximum Pressure Error:  0.95E-05 on Mesh   5 at (  51  99  66)
       ---------------------------------------------------------------
       Mesh    1
       Max CFL number:  0.10E-01 at (  30,  70,   2)
       Max divergence:  0.14E-05 at (  60,  23,  35)
       Min divergence: -0.13E-05 at (  63,  81,  25)
       Max VN number:   0.83E-02 at (  68,  55,  14)
       Mesh    2
       Max CFL number:  0.10E-01 at (   5,  79,  12)
       Max divergence:  0.13E-05 at (  31,  74,   3)
       Min divergence: -0.13E-05 at (  28,   5,  26)
       Max VN number:   0.78E-02 at (  85,  84,  16)
       Mesh    3
       Max CFL number:  0.10E-01 at (  31,  69,  36)
       Max divergence:  0.13E-05 at (  84,  74,   5)
       Min divergence: -0.13E-05 at (  63,  43,  17)
       Max VN number:   0.78E-02 at (  84,  26,   3)
       Mesh    4
       Max CFL number:  0.10E-01 at (  97,  42,  36)
       Max divergence:  0.13E-05 at (  96,  65,  19)
       Min divergence: -0.13E-05 at (  14,  36,  12)
       Max VN number:   0.82E-02 at (  63,   5,  12)
       Mesh    5
       Max CFL number:  0.10E-01 at (  50,  81,  66)
       Max divergence:  0.14E-05 at (  25,  94,  68)
       Min divergence: -0.14E-05 at (  51,  66,  23)
       Max VN number:   0.81E-02 at (   2,  50,  38)
       No. of Lagrangian Particles:             8
       Mesh    6
       Max CFL number:  0.10E-01 at (  38,  21,  56)
       Max divergence:  0.13E-05 at (  20,  19,  63)
       Min divergence: -0.13E-05 at (   7,   7,  61)
       Max VN number:   0.79E-02 at (  51,  40,  19)
       No. of Lagrangian Particles:             8
       Mesh    7
       Max CFL number:  0.10E-01 at (  50,  62,  29)
       Max divergence:  0.13E-05 at (  24,  52,  43)
       Min divergence: -0.13E-05 at (  27,  86,  67)
       Max VN number:   0.77E-02 at (  28,  95,  37)
       No. of Lagrangian Particles:             8
       Mesh    8
       Max CFL number:  0.10E-01 at (  49,  24,  71)
       Max divergence:  0.14E-05 at (  51,   3,  20)
       Min divergence: -0.13E-05 at (  45,  38,  57)
       Max VN number:   0.80E-02 at (  20,  12,  42)
 
       Time Step      60   October 28, 2020  11:16:32
       Step Size:    0.556E-01 s, Total Time:       3.33 s
       Pressure Iterations:      1
       Maximum Velocity Error:  0.76E-04 on Mesh   6 at (  52 101  25)
       Maximum Pressure Error:  0.21E-04 on Mesh   7 at (  51  98  26)
       ---------------------------------------------------------------
       Mesh    1
       Max CFL number:  0.10E-01 at (  30,  70,   2)
       Max divergence:  0.13E-05 at (  60,  23,  35)
       Min divergence: -0.13E-05 at (  32,  44,  18)
       Max VN number:   0.81E-02 at (  68,  55,  14)
       Mesh    2
       Max CFL number:  0.10E-01 at (  97,  96,  29)
       Max divergence:  0.13E-05 at (  31,  74,   3)
       Min divergence: -0.13E-05 at (  28,   5,  26)
       Max VN number:   0.77E-02 at (  85,  84,  16)
       Mesh    3
       Max CFL number:  0.10E-01 at (   3,   3,   8)
       Max divergence:  0.13E-05 at (  14,   9,   8)
       Min divergence: -0.13E-05 at (  63,  43,  17)
       Max VN number:   0.77E-02 at (  10,  86,  21)
       Mesh    4
       Max CFL number:  0.10E-01 at (  97,  42,  36)
       Max divergence:  0.13E-05 at (  96,  65,  19)
       Min divergence: -0.13E-05 at (  14,  36,  12)
       Max VN number:   0.80E-02 at (  63,   5,  12)
       Mesh    5
       Max CFL number:  0.10E-01 at (  50,  81,  66)
       Max divergence:  0.13E-05 at (  25,  94,  68)
       Min divergence: -0.14E-05 at (  51,  66,  23)
       Max VN number:   0.80E-02 at (   2,  50,  38)
       No. of Lagrangian Particles:             8
       Mesh    6
       Max CFL number:  0.10E-01 at (  38,  21,  56)
       Max divergence:  0.13E-05 at (  20,  19,  63)
       Min divergence: -0.13E-05 at (   7,   7,  61)
       Max VN number:   0.78E-02 at (  51,  40,  19)
       No. of Lagrangian Particles:             8
       Mesh    7
       Max CFL number:  0.10E-01 at (  33,  80,  31)
       Max divergence:  0.13E-05 at (  24,  52,  43)
       Min divergence: -0.13E-05 at (  27,  86,  67)
       Max VN number:   0.76E-02 at (  41,   5,  13)
       No. of Lagrangian Particles:             8
       Mesh    8
       Max CFL number:  0.10E-01 at (  49,  24,  71)
       Max divergence:  0.14E-05 at (  51,   3,  20)
       Min divergence: -0.13E-05 at (   8,  30,  17)
       Max VN number:   0.79E-02 at (  20,  12,  42)
 
       Time Step      70   October 28, 2020  11:17:14
       Step Size:    0.556E-01 s, Total Time:       3.89 s
       Pressure Iterations:      1
       Maximum Velocity Error:  0.11E-03 on Mesh   7 at (  52 101   3)
       Maximum Pressure Error:  0.20E-04 on Mesh   7 at (  51   3  40)
       ---------------------------------------------------------------
       Mesh    1
       Max CFL number:  0.10E-01 at (  30,  70,   2)
       Max divergence:  0.13E-05 at (  60,  23,  35)
       Min divergence: -0.13E-05 at (  32,  44,  18)
       Max VN number:   0.80E-02 at (  68,  55,  14)
       Mesh    2
       Max CFL number:  0.10E-01 at (  97,  96,  29)
       Max divergence:  0.13E-05 at (  31,  74,   3)
       Min divergence: -0.13E-05 at (  28,   5,  26)
       Max VN number:   0.76E-02 at (  85,  84,  16)
       Mesh    3
       Max CFL number:  0.10E-01 at (   3,   3,   8)
       Max divergence:  0.13E-05 at (  14,   9,   8)
       Min divergence: -0.12E-05 at (  12,  46,  22)
       Max VN number:   0.75E-02 at (  10,  86,  21)
       Mesh    4
       Max CFL number:  0.10E-01 at (  97,  42,  36)
       Max divergence:  0.12E-05 at (  96,  65,  19)
       Min divergence: -0.13E-05 at (  14,  36,  12)
       Max VN number:   0.79E-02 at (  22,  19,  22)
       Mesh    5
       Max CFL number:  0.10E-01 at (  50,  81,  66)
       Max divergence:  0.13E-05 at (  18,  58,  44)
       Min divergence: -0.13E-05 at (  51,  66,  23)
       Max VN number:   0.79E-02 at (   2,  50,  38)
       No. of Lagrangian Particles:             8
       Mesh    6
       Max CFL number:  0.99E-02 at (  38,  21,  56)
       Max divergence:  0.13E-05 at (  36,  92,  75)
       Min divergence: -0.13E-05 at (  25,  96,  61)
       Max VN number:   0.77E-02 at (  51,  40,  19)
       No. of Lagrangian Particles:             8
       Mesh    7
       Max CFL number:  0.10E-01 at (  33,  80,  31)
       Max divergence:  0.13E-05 at (  24,  52,  43)
       Min divergence: -0.13E-05 at (  27,  86,  67)
       Max VN number:   0.74E-02 at (  41,   5,  13)
       No. of Lagrangian Particles:             8
       Mesh    8
       Max CFL number:  0.10E-01 at (  46,  81,  10)
       Max divergence:  0.14E-05 at (  51,   3,  20)
       Min divergence: -0.13E-05 at (   8,  30,  17)
       Max VN number:   0.77E-02 at (  20,  12,  42)
 
       Time Step      80   October 28, 2020  11:17:54
       Step Size:    0.556E-01 s, Total Time:       4.44 s
       Pressure Iterations:      1
       Maximum Velocity Error:  0.13E-03 on Mesh   6 at (  52 101   1)
       Maximum Pressure Error:  0.76E-05 on Mesh   6 at (  51   3  26)
       ---------------------------------------------------------------
       Mesh    1
       Max CFL number:  0.10E-01 at (  30,  70,   2)
       Max divergence:  0.13E-05 at (  60,  23,  35)
       Min divergence: -0.13E-05 at (  32,  44,  18)
       Max VN number:   0.78E-02 at (  96,  43,  34)
       Mesh    2
       Max CFL number:  0.10E-01 at (  97,  96,  29)
       Max divergence:  0.13E-05 at (  31,  74,   3)
       Min divergence: -0.13E-05 at (  28,   5,  26)
       Max VN number:   0.75E-02 at (  73,  72,  18)
       Mesh    3
       Max CFL number:  0.10E-01 at (   3,   3,   8)
       Max divergence:  0.13E-05 at (  14,   9,   8)
       Min divergence: -0.12E-05 at (  12,  46,  22)
       Max VN number:   0.74E-02 at (  10,  86,  21)
       Mesh    4
       Max CFL number:  0.10E-01 at (  97,  42,  36)
       Max divergence:  0.12E-05 at (   5,  93,  29)
       Min divergence: -0.13E-05 at (  14,  36,  12)
       Max VN number:   0.78E-02 at (  22,  19,  22)
       Mesh    5
       Max CFL number:  0.10E-01 at (  50,  81,  66)
       Max divergence:  0.13E-05 at (  18,  58,  44)
       Min divergence: -0.13E-05 at (  51,  66,  23)
       Max VN number:   0.77E-02 at (   2,  50,  38)
       No. of Lagrangian Particles:             8
       Mesh    6
       Max CFL number:  0.98E-02 at (  48,  76,  74)
       Max divergence:  0.13E-05 at (  36,  92,  75)
       Min divergence: -0.13E-05 at (  25,  96,  61)
       Max VN number:   0.76E-02 at (  51,  40,  19)
       No. of Lagrangian Particles:             8
       Mesh    7
       Max CFL number:  0.10E-01 at (  25,  39,  55)
       Max divergence:  0.13E-05 at (  24,  52,  43)
       Min divergence: -0.13E-05 at (  27,  86,  67)
       Max VN number:   0.73E-02 at (  41,   5,  13)
       No. of Lagrangian Particles:             8
       Mesh    8
       Max CFL number:  0.10E-01 at (  46,  81,  10)
       Max divergence:  0.14E-05 at (  51,   3,  20)
       Min divergence: -0.13E-05 at (   8,  30,  17)
       Max VN number:   0.76E-02 at (  20,  12,  42)
 
       Time Step      90   October 28, 2020  11:18:34
       Step Size:    0.556E-01 s, Total Time:       5.00 s
       Pressure Iterations:      1
       Maximum Velocity Error:  0.40E-04 on Mesh   5 at (  52 101   1)
       Maximum Pressure Error:  0.17E-04 on Mesh   7 at (  51   3  40)
       ---------------------------------------------------------------
       Mesh    1
       Max CFL number:  0.10E-01 at (  30,  70,   2)
       Max divergence:  0.13E-05 at (  85,  65,   6)
       Min divergence: -0.13E-05 at (  32,  44,  18)
       Max VN number:   0.77E-02 at (  96,  43,  34)
       Mesh    2
       Max CFL number:  0.10E-01 at (  28,   5,  26)
       Max divergence:  0.13E-05 at (  31,  74,   3)
       Min divergence: -0.13E-05 at (  33,  18,  14)
       Max VN number:   0.74E-02 at (  73,  72,  18)
       Mesh    3
       Max CFL number:  0.10E-01 at (   3,   3,   8)
       Max divergence:  0.13E-05 at (  14,   9,   8)
       Min divergence: -0.12E-05 at (  12,  46,  22)
       Max VN number:   0.74E-02 at (  14,   9,   8)
       Mesh    4
       Max CFL number:  0.10E-01 at (  97,  42,  36)
       Max divergence:  0.12E-05 at (   5,  93,  29)
       Min divergence: -0.12E-05 at (  55,   4,  19)
       Max VN number:   0.77E-02 at (  22,  19,  22)
       Mesh    5
       Max CFL number:  0.10E-01 at (  50,  81,  66)
       Max divergence:  0.13E-05 at (  18,  58,  44)
       Min divergence: -0.13E-05 at (  51,  66,  23)
       Max VN number:   0.76E-02 at (   2,  50,  38)
       No. of Lagrangian Particles:             8
       Mesh    6
       Max CFL number:  0.97E-02 at (  48,  76,  74)
       Max divergence:  0.13E-05 at (  36,  92,  75)
       Min divergence: -0.12E-05 at (  25,  96,  61)
       Max VN number:   0.75E-02 at (  51,  40,  19)
       No. of Lagrangian Particles:             8
       Mesh    7
       Max CFL number:  0.10E-01 at (  25,  39,  55)
       Max divergence:  0.13E-05 at (  24,  52,  43)
       Min divergence: -0.13E-05 at (  27,  86,  67)
       Max VN number:   0.72E-02 at (  41,   5,  13)
       No. of Lagrangian Particles:             8
       Mesh    8
       Max CFL number:  0.10E-01 at (  46,  81,  10)
       Max divergence:  0.14E-05 at (  51,   3,  20)
       Min divergence: -0.12E-05 at (   8,  30,  17)
       Max VN number:   0.74E-02 at (  20,  12,  42)
 
       Time Step     100   October 28, 2020  11:19:17
       Step Size:    0.556E-01 s, Total Time:       5.56 s
       Pressure Iterations:      3
       Maximum Velocity Error:  0.22E-01 on Mesh   1 at (  49   2   1)
       Maximum Pressure Error:  0.94E+02 on Mesh   1 at (  49   2   2)
       ---------------------------------------------------------------
       Mesh    1
       Max CFL number:  0.37E+00 at (  49,   1,   2)
       Max divergence:  0.68E+01 at (  49,   2,   2)
       Min divergence: -0.12E-05 at (  77,  75,  10)
       Max VN number:   0.65E-01 at (  49,   1,   3)
       No. of Lagrangian Particles:           182
       Total Heat Release Rate:             11.210 kW
       Radiation Loss to Boundaries:        -2.529 kW
       Mesh    2
       Max CFL number:  0.10E-01 at (  28,   5,  26)
       Max divergence:  0.13E-05 at (  31,  74,   3)
       Min divergence: -0.12E-05 at (  33,  18,  14)
       Max VN number:   0.73E-02 at (  60,  78,  21)
       Mesh    3
       Max CFL number:  0.10E-01 at (   3,   3,   8)
       Max divergence:  0.13E-05 at (  14,   9,   8)
       Min divergence: -0.12E-05 at (  88,  88,  32)
       Max VN number:   0.73E-02 at (  14,   9,   8)
       Mesh    4
       Max CFL number:  0.10E-01 at (  97,  42,  36)
       Max divergence:  0.12E-05 at (   5,  93,  29)
       Min divergence: -0.12E-05 at (  55,   4,  19)
       Max VN number:   0.76E-02 at (  22,  19,  22)
       Mesh    5
       Max CFL number:  0.10E-01 at (  50,  81,  66)
       Max divergence:  0.13E-05 at (  18,  58,  44)
       Min divergence: -0.13E-05 at (  51,  66,  23)
       Max VN number:   0.75E-02 at (   2,  50,  38)
       No. of Lagrangian Particles:             8
       Mesh    6
       Max CFL number:  0.96E-02 at (  48,  76,  74)
       Max divergence:  0.13E-05 at (  36,  92,  75)
       Min divergence: -0.12E-05 at (  25,  96,  61)
       Max VN number:   0.74E-02 at (  51,  40,  19)
       No. of Lagrangian Particles:             8
       Mesh    7
       Max CFL number:  0.10E-01 at (  25,  39,  55)
       Max divergence:  0.13E-05 at (  24,  52,  43)
       Min divergence: -0.12E-05 at (  19,  82,  61)
       Max VN number:   0.71E-02 at (  23,  48,  55)
       No. of Lagrangian Particles:             8
       Mesh    8
       Max CFL number:  0.10E-01 at (  46,  81,  10)
       Max divergence:  0.14E-05 at (  51,   3,  20)
       Min divergence: -0.12E-05 at (   8,  30,  17)
       Max VN number:   0.73E-02 at (  20,  12,  42)
 
       Time Step     200   October 28, 2020  11:26:31
       Step Size:    0.259E-01 s, Total Time:       8.88 s
       Pressure Iterations:      1
       Maximum Velocity Error:  0.29E-01 on Mesh   1 at (  48   3  37)
       Maximum Pressure Error:  0.34E+02 on Mesh   1 at (  49   2   2)
       ---------------------------------------------------------------
       Mesh    1
       Max CFL number:  0.90E+00 at (  49,   1,  36)
       Max divergence:  0.74E+01 at (  49,   1,  36)
       Min divergence: -0.11E+01 at (  49,   2,   4)
       Max VN number:   0.48E+00 at (  49,   1,  36)
       No. of Lagrangian Particles:           518
       Total Heat Release Rate:             20.952 kW
       Radiation Loss to Boundaries:        -5.797 kW
       Mesh    2
       Max CFL number:  0.45E-02 at (  34,  50,   2)
       Max divergence:  0.60E-05 at (  64,   2,  21)
       Min divergence: -0.11E-05 at (  88,  74,  15)
       Max VN number:   0.31E-02 at (  73,   4,  10)
       Radiation Loss to Boundaries:         0.033 kW
       Mesh    3
       Max CFL number:  0.47E-02 at (   3,   3,   8)
       Max divergence:  0.13E-05 at (  14,   9,   8)
       Min divergence: -0.12E-05 at (  88,  88,  32)
       Max VN number:   0.33E-02 at (  14,   9,   8)
       Mesh    4
       Max CFL number:  0.47E-02 at (  97,  42,  36)
       Max divergence:  0.11E-05 at (   6,  79,   7)
       Min divergence: -0.11E-05 at (  55,   4,  19)
       Max VN number:   0.33E-02 at (  22,  19,  22)
       Mesh    5
       Max CFL number:  0.44E-02 at (  50,  81,  66)
       Max divergence:  0.39E-05 at (  52,   9,   5)
       Min divergence: -0.12E-05 at (  47,  75,  35)
       Max VN number:   0.32E-02 at (  49,  52,  33)
       No. of Lagrangian Particles:             8
       Radiation Loss to Boundaries:         0.002 kW
       Mesh    6
       Max CFL number:  0.42E-02 at (  50,  39,  69)
       Max divergence:  0.12E-05 at (  36,  92,  75)
       Min divergence: -0.12E-05 at (  14,  11,  62)
       Max VN number:   0.32E-02 at (  51,  40,  19)
       No. of Lagrangian Particles:             8
       Mesh    7
       Max CFL number:  0.45E-02 at (  25,  39,  55)
       Max divergence:  0.12E-05 at (  24,  52,  43)
       Min divergence: -0.11E-05 at (  39,   6,  45)
       Max VN number:   0.31E-02 at (  23,  48,  55)
       No. of Lagrangian Particles:             8
       Mesh    8
       Max CFL number:  0.44E-02 at (  51,   3,  20)
       Max divergence:  0.12E-05 at (  49,  74,  30)
       Min divergence: -0.12E-05 at (  48,  76,  68)
       Max VN number:   0.31E-02 at (   9,  22,  73)
 
       Time Step     300   October 28, 2020  11:33:35
       Step Size:    0.300E-01 s, Total Time:      11.95 s
       Pressure Iterations:      2
       Maximum Velocity Error:  0.40E-01 on Mesh   1 at (  49   1   1)
       Maximum Pressure Error:  0.10E+03 on Mesh   1 at (  49   1   2)
       ---------------------------------------------------------------
       Mesh    1
       Max CFL number:  0.86E+00 at (  49,   1,  36)
       Max divergence:  0.79E+01 at (  49,   1,  36)
       Min divergence: -0.11E+01 at (  49,   2,   5)
       Max VN number:   0.42E+00 at (  49,   1,  36)
       No. of Lagrangian Particles:           826
       Total Heat Release Rate:             43.969 kW
       Radiation Loss to Boundaries:       -13.292 kW
       Mesh    2
       Max CFL number:  0.51E-02 at (  34,  50,   2)
       Max divergence:  0.59E-05 at (  35,   1,  20)
       Min divergence: -0.10E-05 at (  40,  38,  17)
       Max VN number:   0.33E-02 at (  48,  96,  35)
       Radiation Loss to Boundaries:         0.034 kW
       Mesh    3
       Max CFL number:  0.52E-02 at (  97,  29,  11)
       Max divergence:  0.12E-05 at (  14,   9,   8)
       Min divergence: -0.11E-05 at (   8,  76,   8)
       Max VN number:   0.35E-02 at (  14,   9,   8)
       Mesh    4
       Max CFL number:  0.53E-02 at (  97,  42,  35)
       Max divergence:  0.11E-05 at (   6,  79,   7)
       Min divergence: -0.11E-05 at (   3,  68,  24)
       Max VN number:   0.35E-02 at (  22,  19,  22)
       Mesh    5
       Max CFL number:  0.48E-02 at (  50,  81,  66)
       Max divergence:  0.43E-05 at (  52,  10,   1)
       Min divergence: -0.11E-05 at (  47,  75,  35)
       Max VN number:   0.34E-02 at (   4,  77,  10)
       No. of Lagrangian Particles:             8
       Radiation Loss to Boundaries:         0.002 kW
       Mesh    6
       Max CFL number:  0.45E-02 at (  49,  28,  34)
       Max divergence:  0.11E-05 at (  36,  92,  75)
       Min divergence: -0.11E-05 at (  10,   3,  28)
       Max VN number:   0.34E-02 at (   4,  34,  49)
       No. of Lagrangian Particles:             8
       Mesh    7
       Max CFL number:  0.48E-02 at (  25,  39,  55)
       Max divergence:  0.11E-05 at (   6,  84,  53)
       Min divergence: -0.11E-05 at (  39,   6,  45)
       Max VN number:   0.33E-02 at (  23,  48,  55)
       No. of Lagrangian Particles:             8
       Mesh    8
       Max CFL number:  0.48E-02 at (  51,   3,  20)
       Max divergence:  0.12E-05 at (  49,  74,  30)
       Min divergence: -0.11E-05 at (  48,  76,  68)
       Max VN number:   0.35E-02 at (   9,  22,  73)
 
       Time Step     400   October 28, 2020  11:40:29
       Step Size:    0.217E-01 s, Total Time:      14.36 s
       Pressure Iterations:      2
       Maximum Velocity Error:  0.86E-02 on Mesh   1 at (  48   2   1)
       Maximum Pressure Error:  0.14E+03 on Mesh   1 at (  49   1   3)
       ---------------------------------------------------------------
       Mesh    1
       Max CFL number:  0.91E+00 at (  49,   1,  36)
       Max divergence:  0.96E+01 at (  49,   1,  36)
       Min divergence: -0.16E+01 at (  49,   2,   7)
       Max VN number:   0.44E+00 at (  49,   1,  36)
       No. of Lagrangian Particles:          1322
       Total Heat Release Rate:             73.446 kW
       Radiation Loss to Boundaries:       -22.103 kW
       Mesh    2
       Max CFL number:  0.35E-02 at (  34,  50,   2)
       Max divergence:  0.17E-04 at (  64,   1,  21)
       Min divergence: -0.94E-06 at (  96,  77,   5)
       Max VN number:   0.23E-02 at (  48,  96,  35)
       Radiation Loss to Boundaries:         0.098 kW
       Mesh    3
       Max CFL number:  0.37E-02 at (  97,  29,  10)
       Max divergence:  0.20E-05 at (  18,   2,  36)
       Min divergence: -0.10E-05 at (  74,  31,  17)
       Max VN number:   0.24E-02 at (  14,   9,   8)
       Radiation Loss to Boundaries:         0.003 kW
       Mesh    4
       Max CFL number:  0.38E-02 at (  87,  49,  36)
       Max divergence:  0.11E-05 at (   6,  79,   7)
       Min divergence: -0.10E-05 at (   3,  68,  24)
       Max VN number:   0.24E-02 at (  22,  19,  22)
       Mesh    5
       Max CFL number:  0.36E-02 at (  49,  73,   1)
       Max divergence:  0.11E-04 at (  52,   8,   5)
       Min divergence: -0.99E-06 at (  20,  97,   2)
       Max VN number:   0.24E-02 at (   4,  77,  10)
       No. of Lagrangian Particles:             8
       Radiation Loss to Boundaries:         0.005 kW
       Mesh    6
       Max CFL number:  0.32E-02 at (  50,  62,  26)
       Max divergence:  0.10E-05 at (  48,  69,  47)
       Min divergence: -0.11E-05 at (  10,   3,  28)
       Max VN number:   0.24E-02 at (   4,  34,  49)
       No. of Lagrangian Particles:             8
       Mesh    7
       Max CFL number:  0.34E-02 at (  42,  34,   1)
       Max divergence:  0.10E-05 at (  39,   7,  59)
       Min divergence: -0.10E-05 at (  39,   6,  45)
       Max VN number:   0.23E-02 at (  51,  23,  51)
       No. of Lagrangian Particles:             8
       Mesh    8
       Max CFL number:  0.33E-02 at (  51,   3,  20)
       Max divergence:  0.11E-05 at (  49,  74,  30)
       Min divergence: -0.10E-05 at (  32, 100,  51)
       Max VN number:   0.24E-02 at (   9,  22,  73)
 
       Time Step     500   October 28, 2020  11:47:19
       Step Size:    0.217E-01 s, Total Time:      16.54 s
       Pressure Iterations:      1
       Maximum Velocity Error:  0.93E-02 on Mesh   1 at (  49   2   1)
       Maximum Pressure Error:  0.70E+02 on Mesh   1 at (  49   1   2)
       ---------------------------------------------------------------
       Mesh    1
       Max CFL number:  0.83E+00 at (  50,   1,  36)
       Max divergence:  0.97E+01 at (  50,   1,  36)
       Min divergence: -0.15E+01 at (  49,   2,   7)
       Max VN number:   0.42E+00 at (  50,   1,  36)
       No. of Lagrangian Particles:          1662
       Total Heat Release Rate:             86.243 kW
       Radiation Loss to Boundaries:       -26.167 kW
       Mesh    2
       Max CFL number:  0.34E-02 at (  18,  63,  36)
       Max divergence:  0.22E-04 at (  64,   1,  21)
       Min divergence: -0.94E-06 at (  96,  77,   5)
       Max VN number:   0.22E-02 at (  48,  96,  35)
       Radiation Loss to Boundaries:         0.123 kW
       Mesh    3
       Max CFL number:  0.36E-02 at (  97,  29,  10)
[...]
       Min divergence: -0.11E-05 at (  50,   1,  64)
       Max VN number:   0.34E-03 at (   1,  85,  78)
       Radiation Loss to Boundaries:         0.143 kW
 
       Time Step   76400   November  2, 2020  21:27:16
       Step Size:    0.494E-02 s, Total Time:     495.53 s
       Pressure Iterations:      5
       Maximum Velocity Error:  0.38E-01 on Mesh   1 at (  65 101  36)
       Maximum Pressure Error:  0.15E+04 on Mesh   1 at (  61  77  36)
       ---------------------------------------------------------------
       Mesh    1
       Max CFL number:  0.85E+00 at (  93,   1,  36)
       Max divergence:  0.22E+02 at (  93,   1,  36)
       Min divergence: -0.61E+01 at (  32,  93,  36)
       Max VN number:   0.30E+00 at (  93,   1,  36)
       No. of Lagrangian Particles:        945298
       Total Heat Release Rate:          48081.678 kW
       Radiation Loss to Boundaries:    -15223.441 kW
       Mesh    2
       Max CFL number:  0.53E+00 at (  60,  33,  33)
       Max divergence:  0.95E+01 at (  49,  11,  36)
       Min divergence: -0.34E+01 at (  51,  40,  31)
       Max VN number:   0.19E+00 at (   1,  12,  27)
       No. of Lagrangian Particles:        643299
       Total Heat Release Rate:           1983.609 kW
       Radiation Loss to Boundaries:     -2371.763 kW
       Mesh    3
       Max CFL number:  0.40E+00 at (  65,   9,  33)
       Max divergence:  0.21E+01 at (  81,  59,  36)
       Min divergence: -0.98E+00 at (   7,  54,  29)
       Max VN number:   0.97E-01 at (  97,  26,  36)
       No. of Lagrangian Particles:        587716
       Total Heat Release Rate:             94.600 kW
       Radiation Loss to Boundaries:      -861.978 kW
       Mesh    4
       Max CFL number:  0.39E+00 at (   9, 100,  35)
       Max divergence:  0.56E+00 at (  74,  20,  36)
       Min divergence: -0.62E+00 at (  25,  99,  32)
       Max VN number:   0.11E+00 at (   3, 100,  36)
       No. of Lagrangian Particles:        600787
       Total Heat Release Rate:             14.607 kW
       Radiation Loss to Boundaries:      -531.584 kW
       Mesh    5
       Max CFL number:  0.50E+00 at (  48,  93,  71)
       Max divergence:  0.61E+01 at (  50,  53,  24)
       Min divergence: -0.49E+01 at (  49,  94,  26)
       Max VN number:   0.31E+00 at (  51,  89,  65)
       No. of Lagrangian Particles:         80129
       Total Heat Release Rate:             18.372 kW
       Radiation Loss to Boundaries:       147.959 kW
       Mesh    6
       Max CFL number:  0.41E+00 at (  51,   4,  55)
       Max divergence:  0.30E+01 at (  50,  37,  24)
       Min divergence: -0.31E+01 at (  49,  57,  26)
       Max VN number:   0.26E+00 at (  51,   4,  65)
       No. of Lagrangian Particles:         48523
       Total Heat Release Rate:              0.019 kW
       Radiation Loss to Boundaries:        31.124 kW
       Mesh    7
       Max CFL number:  0.48E-01 at (  52,   6,  65)
       Max divergence:  0.14E-02 at (  51,   6,  64)
       Min divergence: -0.27E-02 at (  52,   7,  65)
       Max VN number:   0.14E-01 at (  52,   7,  65)
       No. of Lagrangian Particles:           126
       Radiation Loss to Boundaries:         1.744 kW
       Mesh    8
       Max CFL number:  0.56E-02 at (  20,   1,  80)
       Max divergence:  0.15E-04 at (  21,   1,  58)
       Min divergence: -0.11E-05 at (  50,   1,  64)
       Max VN number:   0.33E-03 at (   1,  85,  78)
       Radiation Loss to Boundaries:         0.135 kW
 
       Time Step   76500   November  2, 2020  21:42:03
       Step Size:    0.565E-02 s, Total Time:     496.06 s
       Pressure Iterations:      5
       Maximum Velocity Error:  0.37E-01 on Mesh   1 at (  66 101  34)
       Maximum Pressure Error:  0.10E+04 on Mesh   1 at (  97  77  36)
       ---------------------------------------------------------------
       Mesh    1
       Max CFL number:  0.97E+00 at (  46,   1,  36)
       Max divergence:  0.23E+02 at (  44,   3,  36)
       Min divergence: -0.97E+01 at (  43,   2,  36)
       Max VN number:   0.39E+00 at (  48,   6,  36)
       No. of Lagrangian Particles:        918448
       Total Heat Release Rate:          46621.319 kW
       Radiation Loss to Boundaries:    -14741.629 kW
       Mesh    2
       Max CFL number:  0.65E+00 at (  67,   1,  35)
       Max divergence:  0.89E+01 at (  31,  37,  32)
       Min divergence: -0.28E+01 at (  28,  31,  33)
       Max VN number:   0.20E+00 at (   2,  60,  27)
       No. of Lagrangian Particles:        649831
       Total Heat Release Rate:           1779.445 kW
       Radiation Loss to Boundaries:     -2578.083 kW
       Mesh    3
       Max CFL number:  0.48E+00 at (  49,   6,  35)
       Max divergence:  0.19E+01 at (  79,  12,  34)
       Min divergence: -0.13E+01 at (  70,  16,  28)
       Max VN number:   0.11E+00 at (  49,   6,  36)
       No. of Lagrangian Particles:        593164
       Total Heat Release Rate:            183.644 kW
       Radiation Loss to Boundaries:      -909.305 kW
       Mesh    4
       Max CFL number:  0.42E+00 at (  21, 100,  35)
       Max divergence:  0.85E+00 at (  90,   8,  36)
       Min divergence: -0.62E+00 at (  13,  52,  32)
       Max VN number:   0.13E+00 at (   3, 100,  36)
       No. of Lagrangian Particles:        600692
       Total Heat Release Rate:             26.291 kW
       Radiation Loss to Boundaries:      -531.117 kW
       Mesh    5
       Max CFL number:  0.60E+00 at (  49,  66,  45)
       Max divergence:  0.79E+01 at (  50,  43,  24)
       Min divergence: -0.36E+01 at (  51,  42,  24)
       Max VN number:   0.31E+00 at (  51, 100,  65)
       No. of Lagrangian Particles:         74085
       Total Heat Release Rate:             80.300 kW
       Radiation Loss to Boundaries:        96.572 kW
       Mesh    6
       Max CFL number:  0.54E+00 at (  47,   1,  78)
       Max divergence:  0.40E+01 at (  50,  51,  24)
       Min divergence: -0.34E+01 at (  49,  28,  26)
       Max VN number:   0.30E+00 at (  51,   1,  65)
       No. of Lagrangian Particles:         48831
       Total Heat Release Rate:              0.792 kW
       Radiation Loss to Boundaries:        30.641 kW
       Mesh    7
       Max CFL number:  0.47E-01 at (  52,   9,  65)
       Max divergence:  0.91E-03 at (  51,   9,  64)
       Min divergence: -0.17E-02 at (  52,  10,  65)
       Max VN number:   0.13E-01 at (  52,  10,  65)
       No. of Lagrangian Particles:           126
       Radiation Loss to Boundaries:         1.667 kW
       Mesh    8
       Max CFL number:  0.65E-02 at (  20,   1,  80)
       Max divergence:  0.15E-04 at (  21,   1,  58)
       Min divergence: -0.11E-05 at (  50,   1,  64)
       Max VN number:   0.38E-03 at (   1,  84,  78)
       Radiation Loss to Boundaries:         0.129 kW
 
       Time Step   76600   November  2, 2020  21:55:35
       Step Size:    0.533E-02 s, Total Time:     496.57 s
       Pressure Iterations:      6
       Maximum Velocity Error:  0.42E-01 on Mesh   1 at (  76 101  36)
       Maximum Pressure Error:  0.15E+04 on Mesh   1 at (  91  52  36)
       ---------------------------------------------------------------
       Mesh    1
       Max CFL number:  0.80E+00 at (  34,   2,  35)
       Max divergence:  0.18E+02 at (   6,  21,  36)
       Min divergence: -0.66E+01 at (  57,   8,   5)
       Max VN number:   0.30E+00 at (  76,  21,  36)
       No. of Lagrangian Particles:        931665
       Total Heat Release Rate:          45906.685 kW
       Radiation Loss to Boundaries:    -14761.897 kW
       Mesh    2
       Max CFL number:  0.53E+00 at (  63,  46,  33)
       Max divergence:  0.78E+01 at (  23,  55,  36)
       Min divergence: -0.38E+01 at (  46,   2,  36)
       Max VN number:   0.21E+00 at (   2,  60,  33)
       No. of Lagrangian Particles:        608931
       Total Heat Release Rate:           1027.243 kW
       Radiation Loss to Boundaries:     -2047.507 kW
       Mesh    3
       Max CFL number:  0.48E+00 at (  62,   1,  34)
       Max divergence:  0.24E+01 at (  66,   9,  36)
       Min divergence: -0.24E+01 at (  49,  11,  34)
       Max VN number:   0.11E+00 at (  67,   3,  36)
       No. of Lagrangian Particles:        610097
       Total Heat Release Rate:            353.857 kW
       Radiation Loss to Boundaries:      -992.017 kW
       Mesh    4
       Max CFL number:  0.39E+00 at (  18, 100,  35)
       Max divergence:  0.89E+00 at (  73,  45,  36)
       Min divergence: -0.60E+00 at (  46,  29,  35)
       Max VN number:   0.11E+00 at (   3, 100,  36)
       No. of Lagrangian Particles:        612777
       Total Heat Release Rate:             34.685 kW
       Radiation Loss to Boundaries:      -554.547 kW
       Mesh    5
       Max CFL number:  0.58E+00 at (  47,  66,  76)
       Max divergence:  0.71E+01 at (  49,  40,  24)
       Min divergence: -0.43E+01 at (  49,  42,  25)
       Max VN number:   0.35E+00 at (  51,  71,  65)
       No. of Lagrangian Particles:         75942
       Total Heat Release Rate:             38.894 kW
       Radiation Loss to Boundaries:       106.258 kW
       Mesh    6
       Max CFL number:  0.44E+00 at (  48,  10,  79)
       Max divergence:  0.56E+01 at (  49,  61,  22)
       Min divergence: -0.35E+01 at (  49,  34,  26)
       Max VN number:   0.24E+00 at (  51,   4,  65)
       No. of Lagrangian Particles:         49910
       Total Heat Release Rate:              1.518 kW
       Radiation Loss to Boundaries:        31.237 kW
       Mesh    7
       Max CFL number:  0.78E-01 at (  52,   1,  65)
       Max divergence:  0.67E-02 at (  52,   1,  64)
       Min divergence: -0.51E-02 at (  52,   1,  65)
       Max VN number:   0.30E-01 at (  52,   1,  65)
       No. of Lagrangian Particles:           126
       Radiation Loss to Boundaries:         1.764 kW
       Mesh    8
       Max CFL number:  0.61E-02 at (  20,   1,  80)
       Max divergence:  0.16E-04 at (  21,   1,  58)
       Min divergence: -0.11E-05 at (  50,   1,  64)
       Max VN number:   0.36E-03 at (   1,  84,  78)
       Radiation Loss to Boundaries:         0.136 kW
 
       Time Step   76700   November  2, 2020  22:09:11
       Step Size:    0.519E-02 s, Total Time:     497.12 s
       Pressure Iterations:      5
       Maximum Velocity Error:  0.43E-01 on Mesh   1 at (  63 101  34)
       Maximum Pressure Error:  0.10E+04 on Mesh   1 at (  30  45  36)
       ---------------------------------------------------------------
       Mesh    1
       Max CFL number:  0.89E+00 at (  54,   7,  36)
       Max divergence:  0.22E+02 at (  46,   7,  36)
       Min divergence: -0.73E+01 at (  82,  56,  36)
       Max VN number:   0.28E+00 at (   1,  80,  37)
       No. of Lagrangian Particles:        953961
       Total Heat Release Rate:          48548.685 kW
       Radiation Loss to Boundaries:    -14999.002 kW
       Mesh    2
       Max CFL number:  0.59E+00 at (  62,  10,  34)
       Max divergence:  0.66E+01 at (  36,  33,  36)
       Min divergence: -0.36E+01 at (  37,  34,  36)
       Max VN number:   0.16E+00 at (   2,  15,  26)
       No. of Lagrangian Particles:        595807
       Total Heat Release Rate:           1204.468 kW
       Radiation Loss to Boundaries:     -2208.792 kW
       Mesh    3
       Max CFL number:  0.44E+00 at (  71,  19,  33)
       Max divergence:  0.30E+01 at (  67,  10,  36)
       Min divergence: -0.13E+01 at (  67,  17,  36)
       Max VN number:   0.11E+00 at (  97,  24,  36)
       No. of Lagrangian Particles:        626763
       Total Heat Release Rate:            323.740 kW
       Radiation Loss to Boundaries:     -1012.459 kW
       Mesh    4
       Max CFL number:  0.38E+00 at (  65, 100,  35)
       Max divergence:  0.10E+01 at (  73,  71,  36)
       Min divergence: -0.65E+00 at (  95,  89,  29)
       Max VN number:   0.10E+00 at (  97, 100,  36)
       No. of Lagrangian Particles:        612896
       Total Heat Release Rate:             20.273 kW
       Radiation Loss to Boundaries:      -549.860 kW
       Mesh    5
       Max CFL number:  0.63E+00 at (  47,  47,  57)
       Max divergence:  0.73E+01 at (  47,  56,  29)
       Min divergence: -0.55E+01 at (  49,  50,  26)
       Max VN number:   0.29E+00 at (  51,  40,  65)
       No. of Lagrangian Particles:         82583
       Total Heat Release Rate:              9.925 kW
       Radiation Loss to Boundaries:       123.498 kW
       Mesh    6
       Max CFL number:  0.40E+00 at (  52,  37,  25)
       Max divergence:  0.35E+01 at (  50,  16,  24)
       Min divergence: -0.26E+01 at (  49,  59,  25)
       Max VN number:   0.22E+00 at (  51,  18,  65)
       No. of Lagrangian Particles:         52851
       Total Heat Release Rate:              0.210 kW
       Radiation Loss to Boundaries:        33.299 kW
       Mesh    7
       Max CFL number:  0.93E-01 at (  52,   6,  65)
       Max divergence:  0.59E-02 at (  52,   1,  64)
       Min divergence: -0.12E-01 at (  52,   1,  65)
       Max VN number:   0.25E-01 at (  52,   4,  65)
       No. of Lagrangian Particles:           130
       Radiation Loss to Boundaries:         1.887 kW
       Mesh    8
       Max CFL number:  0.60E-02 at (  21,   1,  80)
       Max divergence:  0.17E-04 at (  21,   1,  58)
       Min divergence: -0.11E-05 at (  50,   1,  64)
       Max VN number:   0.35E-03 at (   1,  84,  78)
       Radiation Loss to Boundaries:         0.147 kW
 
       Time Step   76800   November  2, 2020  22:23:17
       Step Size:    0.537E-02 s, Total Time:     497.65 s
       Pressure Iterations:      6
       Maximum Velocity Error:  0.44E-01 on Mesh   1 at (   0  36  32)
       Maximum Pressure Error:  0.17E+04 on Mesh   1 at (  41   5  36)
       ---------------------------------------------------------------
       Mesh    1
       Max CFL number:  0.98E+00 at (  42,   4,  36)
       Max divergence:  0.39E+02 at (  42,   4,  36)
       Min divergence: -0.78E+01 at (  38,   3,  36)
       Max VN number:   0.33E+00 at (  16,  15,  36)
       No. of Lagrangian Particles:        978885
       Total Heat Release Rate:          47414.074 kW
       Radiation Loss to Boundaries:    -15091.992 kW
       Mesh    2
       Max CFL number:  0.59E+00 at (  58,  27,  33)
       Max divergence:  0.87E+01 at (  24,   7,  36)
       Min divergence: -0.21E+01 at (  58,  18,  35)
       Max VN number:   0.24E+00 at (   1,   1,  27)
       No. of Lagrangian Particles:        584526
       Total Heat Release Rate:           1131.326 kW
       Radiation Loss to Boundaries:     -2055.121 kW
       Mesh    3
       Max CFL number:  0.43E+00 at (  75,   2,  34)
       Max divergence:  0.22E+01 at (  18,  23,  36)
       Min divergence: -0.11E+01 at (  60,   4,  36)
       Max VN number:   0.10E+00 at (  71,  30,  36)
       No. of Lagrangian Particles:        650478
       Total Heat Release Rate:            212.658 kW
       Radiation Loss to Boundaries:     -1049.374 kW
       Mesh    4
       Max CFL number:  0.38E+00 at (  79, 100,  35)
       Max divergence:  0.65E+00 at (  78,  95,  36)
       Min divergence: -0.78E+00 at (  27,   1,  35)
       Max VN number:   0.11E+00 at (  97, 100,  36)
       No. of Lagrangian Particles:        598706
       Total Heat Release Rate:             21.621 kW
       Radiation Loss to Boundaries:      -536.883 kW
       Mesh    5
       Max CFL number:  0.52E+00 at (  47,  48,  80)
       Max divergence:  0.94E+01 at (  51,  96,  25)
       Min divergence: -0.39E+01 at (  50,  95,  25)
       Max VN number:   0.30E+00 at (  51,  95,  65)
       No. of Lagrangian Particles:         78942
       Total Heat Release Rate:             77.801 kW
       Radiation Loss to Boundaries:       119.001 kW
       Mesh    6
       Max CFL number:  0.48E+00 at (  46,   1,  35)
       Max divergence:  0.48E+01 at (  49,   2,  24)
       Min divergence: -0.39E+01 at (  50,  12,  25)
       Max VN number:   0.28E+00 at (  51,  38,  65)
       No. of Lagrangian Particles:         55959
       Total Heat Release Rate:             12.440 kW
       Radiation Loss to Boundaries:        21.064 kW
       Mesh    7
       Max CFL number:  0.76E-01 at (  52,  11,  65)
       Max divergence:  0.10E-01 at (  51,   2,  64)
       Min divergence: -0.13E-01 at (  51,   1,  65)
       Max VN number:   0.19E-01 at (  52,   9,  65)
       No. of Lagrangian Particles:           131
       Radiation Loss to Boundaries:         1.681 kW
       Mesh    8
       Max CFL number:  0.63E-02 at (  21,   1,  80)
       Max divergence:  0.15E-04 at (  21,   1,  58)
       Min divergence: -0.12E-05 at (  50,   1,  64)
       Max VN number:   0.35E-03 at (   1,  84,  78)
       Radiation Loss to Boundaries:         0.130 kW
 
       Time Step   76900   November  2, 2020  22:36:52
       Step Size:    0.496E-02 s, Total Time:     498.17 s
       Pressure Iterations:      4
       Maximum Velocity Error:  0.38E-01 on Mesh   1 at (   0  50  41)
       Maximum Pressure Error:  0.11E+04 on Mesh   1 at (  97  64  36)
       ---------------------------------------------------------------
       Mesh    1
       Max CFL number:  0.89E+00 at (  42,   9,  36)
       Max divergence:  0.29E+02 at (  97,  64,  36)
       Min divergence: -0.70E+01 at (  26,   7,   4)
       Max VN number:   0.31E+00 at (  97,   1,  36)
       No. of Lagrangian Particles:        975009
       Total Heat Release Rate:          51907.411 kW
       Radiation Loss to Boundaries:    -16113.039 kW
       Mesh    2
       Max CFL number:  0.53E+00 at (  24,  18,  34)
       Max divergence:  0.10E+02 at (  71,   5,  36)
       Min divergence: -0.20E+01 at (  71,   6,  36)
       Max VN number:   0.17E+00 at (   2,  60,  35)
       No. of Lagrangian Particles:        575032
       Total Heat Release Rate:            844.167 kW
       Radiation Loss to Boundaries:     -1990.334 kW
       Mesh    3
       Max CFL number:  0.44E+00 at (  84,   8,  32)
       Max divergence:  0.20E+01 at (  87,   8,  36)
       Min divergence: -0.17E+01 at (  89,  10,  36)
       Max VN number:   0.99E-01 at (  79,   4,  36)
       No. of Lagrangian Particles:        639798
       Total Heat Release Rate:            123.156 kW
       Radiation Loss to Boundaries:      -977.436 kW
       Mesh    4
       Max CFL number:  0.35E+00 at (  36, 100,  35)
       Max divergence:  0.98E+00 at (  31,  29,  36)
       Min divergence: -0.59E+00 at (  60,   8,  35)
       Max VN number:   0.10E+00 at (  97, 100,  36)
       No. of Lagrangian Particles:        605897
       Total Heat Release Rate:             32.835 kW
       Radiation Loss to Boundaries:      -569.547 kW
       Mesh    5
       Max CFL number:  0.50E+00 at (  49,  76,  51)
       Max divergence:  0.55E+01 at (  49,  41,  24)
       Min divergence: -0.42E+01 at (  50,  46,  25)
       Max VN number:   0.29E+00 at (  51,  78,  65)
       No. of Lagrangian Particles:         77608
       Total Heat Release Rate:              7.378 kW
       Radiation Loss to Boundaries:       146.990 kW
       Mesh    6
       Max CFL number:  0.46E+00 at (  48,   1,  75)
       Max divergence:  0.35E+01 at (  50,  29,  24)
       Min divergence: -0.42E+01 at (  50,  28,  25)
       Max VN number:   0.22E+00 at (  51,   2,  65)
       No. of Lagrangian Particles:         55010
       Total Heat Release Rate:              3.043 kW
       Radiation Loss to Boundaries:        21.298 kW
       Mesh    7
       Max CFL number:  0.54E-01 at (  52,  15,  65)
       Max divergence:  0.47E-02 at (  52,   5,  64)
       Min divergence: -0.77E-02 at (  52,   5,  65)
       Max VN number:   0.14E-01 at (  50,   1,  66)
       No. of Lagrangian Particles:           130
       Radiation Loss to Boundaries:         1.798 kW
       Mesh    8
       Max CFL number:  0.58E-02 at (  21,   1,  80)
       Max divergence:  0.17E-04 at (  21,   1,  58)
       Min divergence: -0.12E-05 at (  50,   1,  64)
       Max VN number:   0.32E-03 at (   1,  69,  78)
       Radiation Loss to Boundaries:         0.145 kW
 
